
---------- Begin Simulation Statistics ----------
final_tick                                   72734000                       # Number of ticks from beginning of simulation (restored from checkpoints and never reset)
host_inst_rate                                 447160                       # Simulator instruction rate (inst/s)
host_mem_usage                                 652188                       # Number of bytes of host memory used
host_op_rate                                   515466                       # Simulator op (including micro ops) rate (op/s)
host_seconds                                     0.03                       # Real time elapsed on the host
host_tick_rate                             2828818777                       # Simulator tick rate (ticks/s)
sim_freq                                 1000000000000                       # Frequency of simulated ticks
sim_insts                                       11461                       # Number of instructions simulated
sim_ops                                         13247                       # Number of ops (including micro ops) simulated
sim_seconds                                  0.000073                       # Number of seconds simulated
sim_ticks                                    72734000                       # Number of ticks simulated
system.cpu.Branches                              2378                       # Number of branches fetched
system.cpu.committedInsts                       11461                       # Number of instructions committed
system.cpu.committedOps                         13247                       # Number of ops (including micro ops) committed
system.cpu.idle_fraction                     0.000000                       # Percentage of idle cycles
system.cpu.not_idle_fraction                 1.000000                       # Percentage of non-idle cycles
system.cpu.numCycles                            72734                       # number of cpu cycles simulated
system.cpu.numWorkItemsCompleted                    0                       # number of work items this cpu completed
system.cpu.numWorkItemsStarted                      0                       # number of work items this cpu started
system.cpu.num_busy_cycles               72733.999000                       # Number of busy cycles
system.cpu.num_cc_register_reads                45598                       # number of times the CC registers were read
system.cpu.num_cc_register_writes                7602                       # number of times the CC registers were written
system.cpu.num_conditional_control_insts         1725                       # number of instructions that are conditional controls
system.cpu.num_fp_alu_accesses                      0                       # Number of float alu accesses
system.cpu.num_fp_insts                             0                       # number of float instructions
system.cpu.num_fp_register_reads                    0                       # number of times the floating registers were read
system.cpu.num_fp_register_writes                   0                       # number of times the floating registers were written
system.cpu.num_func_calls                         449                       # number of times a function call or return occured
system.cpu.num_idle_cycles                   0.001000                       # Number of idle cycles
system.cpu.num_int_alu_accesses                 11466                       # Number of integer alu accesses
system.cpu.num_int_insts                        11466                       # number of integer instructions
system.cpu.num_int_register_reads               18755                       # number of times the integer registers were read
system.cpu.num_int_register_writes               8036                       # number of times the integer registers were written
system.cpu.num_load_insts                        2012                       # Number of load instructions
system.cpu.num_mem_refs                          4045                       # number of memory refs
system.cpu.num_store_insts                       2033                       # Number of store instructions
system.cpu.num_vec_alu_accesses                     0                       # Number of vector alu accesses
system.cpu.num_vec_insts                            0                       # number of vector instructions
system.cpu.num_vec_register_reads                  61                       # number of times the vector registers were read
system.cpu.num_vec_register_writes                 26                       # number of times the vector registers were written
system.cpu.op_class::No_OpClass                     0      0.00%      0.00% # Class of executed instruction
system.cpu.op_class::IntAlu                      9235     69.02%     69.02% # Class of executed instruction
system.cpu.op_class::IntMult                       67      0.50%     69.52% # Class of executed instruction
system.cpu.op_class::IntDiv                         0      0.00%     69.52% # Class of executed instruction
system.cpu.op_class::FloatAdd                       0      0.00%     69.52% # Class of executed instruction
system.cpu.op_class::FloatCmp                       0      0.00%     69.52% # Class of executed instruction
system.cpu.op_class::FloatCvt                       0      0.00%     69.52% # Class of executed instruction
system.cpu.op_class::FloatMult                      0      0.00%     69.52% # Class of executed instruction
system.cpu.op_class::FloatMultAcc                   0      0.00%     69.52% # Class of executed instruction
system.cpu.op_class::FloatDiv                       0      0.00%     69.52% # Class of executed instruction
system.cpu.op_class::FloatMisc                      0      0.00%     69.52% # Class of executed instruction
system.cpu.op_class::FloatSqrt                      0      0.00%     69.52% # Class of executed instruction
system.cpu.op_class::SimdAdd                        0      0.00%     69.52% # Class of executed instruction
system.cpu.op_class::SimdAddAcc                     0      0.00%     69.52% # Class of executed instruction
system.cpu.op_class::SimdAlu                        0      0.00%     69.52% # Class of executed instruction
system.cpu.op_class::SimdCmp                        0      0.00%     69.52% # Class of executed instruction
system.cpu.op_class::SimdCvt                        0      0.00%     69.52% # Class of executed instruction
system.cpu.op_class::SimdMisc                       0      0.00%     69.52% # Class of executed instruction
system.cpu.op_class::SimdMult                       0      0.00%     69.52% # Class of executed instruction
system.cpu.op_class::SimdMultAcc                    0      0.00%     69.52% # Class of executed instruction
system.cpu.op_class::SimdShift                      0      0.00%     69.52% # Class of executed instruction
system.cpu.op_class::SimdShiftAcc                   0      0.00%     69.52% # Class of executed instruction
system.cpu.op_class::SimdDiv                        0      0.00%     69.52% # Class of executed instruction
system.cpu.op_class::SimdSqrt                       0      0.00%     69.52% # Class of executed instruction
system.cpu.op_class::SimdFloatAdd                   0      0.00%     69.52% # Class of executed instruction
system.cpu.op_class::SimdFloatAlu                   0      0.00%     69.52% # Class of executed instruction
system.cpu.op_class::SimdFloatCmp                   3      0.02%     69.54% # Class of executed instruction
system.cpu.op_class::SimdFloatCvt                   1      0.01%     69.55% # Class of executed instruction
system.cpu.op_class::SimdFloatDiv                   0      0.00%     69.55% # Class of executed instruction
system.cpu.op_class::SimdFloatMisc                 29      0.22%     69.77% # Class of executed instruction
system.cpu.op_class::SimdFloatMult                  0      0.00%     69.77% # Class of executed instruction
system.cpu.op_class::SimdFloatMultAcc               0      0.00%     69.77% # Class of executed instruction
system.cpu.op_class::SimdFloatSqrt                  0      0.00%     69.77% # Class of executed instruction
system.cpu.op_class::SimdReduceAdd                  0      0.00%     69.77% # Class of executed instruction
system.cpu.op_class::SimdReduceAlu                  0      0.00%     69.77% # Class of executed instruction
system.cpu.op_class::SimdReduceCmp                  0      0.00%     69.77% # Class of executed instruction
system.cpu.op_class::SimdFloatReduceAdd             0      0.00%     69.77% # Class of executed instruction
system.cpu.op_class::SimdFloatReduceCmp             0      0.00%     69.77% # Class of executed instruction
system.cpu.op_class::SimdAes                        0      0.00%     69.77% # Class of executed instruction
system.cpu.op_class::SimdAesMix                     0      0.00%     69.77% # Class of executed instruction
system.cpu.op_class::SimdSha1Hash                   0      0.00%     69.77% # Class of executed instruction
system.cpu.op_class::SimdSha1Hash2                  0      0.00%     69.77% # Class of executed instruction
system.cpu.op_class::SimdSha256Hash                 0      0.00%     69.77% # Class of executed instruction
system.cpu.op_class::SimdSha256Hash2                0      0.00%     69.77% # Class of executed instruction
system.cpu.op_class::SimdShaSigma2                  0      0.00%     69.77% # Class of executed instruction
system.cpu.op_class::SimdShaSigma3                  0      0.00%     69.77% # Class of executed instruction
system.cpu.op_class::SimdPredAlu                    0      0.00%     69.77% # Class of executed instruction
system.cpu.op_class::MemRead                     2012     15.04%     84.81% # Class of executed instruction
system.cpu.op_class::MemWrite                    2033     15.19%    100.00% # Class of executed instruction
system.cpu.op_class::FloatMemRead                   0      0.00%    100.00% # Class of executed instruction
system.cpu.op_class::FloatMemWrite                  0      0.00%    100.00% # Class of executed instruction
system.cpu.op_class::IprAccess                      0      0.00%    100.00% # Class of executed instruction
system.cpu.op_class::InstPrefetch                   0      0.00%    100.00% # Class of executed instruction
system.cpu.op_class::total                      13380                       # Class of executed instruction
system.cpu.workload.numSyscalls                    13                       # Number of system calls
system.membus.snoop_filter.hit_multi_requests            1                       # Number of requests hitting in the snoop filter with multiple (>1) holders of the requested data.
system.membus.snoop_filter.hit_multi_snoops            0                       # Number of snoops hitting in the snoop filter with multiple (>1) holders of the requested data.
system.membus.snoop_filter.hit_single_requests           66                       # Number of requests hitting in the snoop filter with a single holder of the requested data.
system.membus.snoop_filter.hit_single_snoops            0                       # Number of snoops hitting in the snoop filter with a single holder of the requested data.
system.membus.snoop_filter.tot_requests           579                       # Total number of requests made to the snoop filter.
system.membus.snoop_filter.tot_snoops               0                       # Total number of snoops made to the snoop filter.
system.clk_domain.clock                          2000                       # Clock period in ticks
system.cpu.dcache.demand_hits::.cpu.data         3703                       # number of demand (read+write) hits
system.cpu.dcache.demand_hits::total             3703                       # number of demand (read+write) hits
system.cpu.dcache.overall_hits::.cpu.data         3725                       # number of overall hits
system.cpu.dcache.overall_hits::total            3725                       # number of overall hits
system.cpu.dcache.demand_misses::.cpu.data          174                       # number of demand (read+write) misses
system.cpu.dcache.demand_misses::total            174                       # number of demand (read+write) misses
system.cpu.dcache.overall_misses::.cpu.data          188                       # number of overall misses
system.cpu.dcache.overall_misses::total           188                       # number of overall misses
system.cpu.dcache.demand_miss_latency::.cpu.data     12652000                       # number of demand (read+write) miss cycles
system.cpu.dcache.demand_miss_latency::total     12652000                       # number of demand (read+write) miss cycles
system.cpu.dcache.overall_miss_latency::.cpu.data     12652000                       # number of overall miss cycles
system.cpu.dcache.overall_miss_latency::total     12652000                       # number of overall miss cycles
system.cpu.dcache.demand_accesses::.cpu.data         3877                       # number of demand (read+write) accesses
system.cpu.dcache.demand_accesses::total         3877                       # number of demand (read+write) accesses
system.cpu.dcache.overall_accesses::.cpu.data         3913                       # number of overall (read+write) accesses
system.cpu.dcache.overall_accesses::total         3913                       # number of overall (read+write) accesses
system.cpu.dcache.demand_miss_rate::.cpu.data     0.044880                       # miss rate for demand accesses
system.cpu.dcache.demand_miss_rate::total     0.044880                       # miss rate for demand accesses
system.cpu.dcache.overall_miss_rate::.cpu.data     0.048045                       # miss rate for overall accesses
system.cpu.dcache.overall_miss_rate::total     0.048045                       # miss rate for overall accesses
system.cpu.dcache.demand_avg_miss_latency::.cpu.data 72712.643678                       # average overall miss latency
system.cpu.dcache.demand_avg_miss_latency::total 72712.643678                       # average overall miss latency
system.cpu.dcache.overall_avg_miss_latency::.cpu.data 67297.872340                       # average overall miss latency
system.cpu.dcache.overall_avg_miss_latency::total 67297.872340                       # average overall miss latency
system.cpu.dcache.blocked_cycles::no_mshrs            0                       # number of cycles access was blocked
system.cpu.dcache.blocked_cycles::no_targets            0                       # number of cycles access was blocked
system.cpu.dcache.blocked::no_mshrs                 0                       # number of cycles access was blocked
system.cpu.dcache.blocked::no_targets               0                       # number of cycles access was blocked
system.cpu.dcache.avg_blocked_cycles::no_mshrs          nan                       # average number of cycles each access was blocked
system.cpu.dcache.avg_blocked_cycles::no_targets          nan                       # average number of cycles each access was blocked
system.cpu.dcache.demand_mshr_hits::.cpu.data            3                       # number of demand (read+write) MSHR hits
system.cpu.dcache.demand_mshr_hits::total            3                       # number of demand (read+write) MSHR hits
system.cpu.dcache.overall_mshr_hits::.cpu.data            3                       # number of overall MSHR hits
system.cpu.dcache.overall_mshr_hits::total            3                       # number of overall MSHR hits
system.cpu.dcache.demand_mshr_misses::.cpu.data          171                       # number of demand (read+write) MSHR misses
system.cpu.dcache.demand_mshr_misses::total          171                       # number of demand (read+write) MSHR misses
system.cpu.dcache.overall_mshr_misses::.cpu.data          182                       # number of overall MSHR misses
system.cpu.dcache.overall_mshr_misses::total          182                       # number of overall MSHR misses
system.cpu.dcache.demand_mshr_miss_latency::.cpu.data     12150000                       # number of demand (read+write) MSHR miss cycles
system.cpu.dcache.demand_mshr_miss_latency::total     12150000                       # number of demand (read+write) MSHR miss cycles
system.cpu.dcache.overall_mshr_miss_latency::.cpu.data     12908000                       # number of overall MSHR miss cycles
system.cpu.dcache.overall_mshr_miss_latency::total     12908000                       # number of overall MSHR miss cycles
system.cpu.dcache.demand_mshr_miss_rate::.cpu.data     0.044106                       # mshr miss rate for demand accesses
system.cpu.dcache.demand_mshr_miss_rate::total     0.044106                       # mshr miss rate for demand accesses
system.cpu.dcache.overall_mshr_miss_rate::.cpu.data     0.046512                       # mshr miss rate for overall accesses
system.cpu.dcache.overall_mshr_miss_rate::total     0.046512                       # mshr miss rate for overall accesses
system.cpu.dcache.demand_avg_mshr_miss_latency::.cpu.data 71052.631579                       # average overall mshr miss latency
system.cpu.dcache.demand_avg_mshr_miss_latency::total 71052.631579                       # average overall mshr miss latency
system.cpu.dcache.overall_avg_mshr_miss_latency::.cpu.data 70923.076923                       # average overall mshr miss latency
system.cpu.dcache.overall_avg_mshr_miss_latency::total 70923.076923                       # average overall mshr miss latency
system.cpu.dcache.replacements                      0                       # number of replacements
system.cpu.dcache.ReadReq_hits::.cpu.data         1824                       # number of ReadReq hits
system.cpu.dcache.ReadReq_hits::total            1824                       # number of ReadReq hits
system.cpu.dcache.ReadReq_misses::.cpu.data          100                       # number of ReadReq misses
system.cpu.dcache.ReadReq_misses::total           100                       # number of ReadReq misses
system.cpu.dcache.ReadReq_miss_latency::.cpu.data      7639000                       # number of ReadReq miss cycles
system.cpu.dcache.ReadReq_miss_latency::total      7639000                       # number of ReadReq miss cycles
system.cpu.dcache.ReadReq_accesses::.cpu.data         1924                       # number of ReadReq accesses(hits+misses)
system.cpu.dcache.ReadReq_accesses::total         1924                       # number of ReadReq accesses(hits+misses)
system.cpu.dcache.ReadReq_miss_rate::.cpu.data     0.051975                       # miss rate for ReadReq accesses
system.cpu.dcache.ReadReq_miss_rate::total     0.051975                       # miss rate for ReadReq accesses
system.cpu.dcache.ReadReq_avg_miss_latency::.cpu.data        76390                       # average ReadReq miss latency
system.cpu.dcache.ReadReq_avg_miss_latency::total        76390                       # average ReadReq miss latency
system.cpu.dcache.ReadReq_mshr_hits::.cpu.data            3                       # number of ReadReq MSHR hits
system.cpu.dcache.ReadReq_mshr_hits::total            3                       # number of ReadReq MSHR hits
system.cpu.dcache.ReadReq_mshr_misses::.cpu.data           97                       # number of ReadReq MSHR misses
system.cpu.dcache.ReadReq_mshr_misses::total           97                       # number of ReadReq MSHR misses
system.cpu.dcache.ReadReq_mshr_miss_latency::.cpu.data      7285000                       # number of ReadReq MSHR miss cycles
system.cpu.dcache.ReadReq_mshr_miss_latency::total      7285000                       # number of ReadReq MSHR miss cycles
system.cpu.dcache.ReadReq_mshr_miss_rate::.cpu.data     0.050416                       # mshr miss rate for ReadReq accesses
system.cpu.dcache.ReadReq_mshr_miss_rate::total     0.050416                       # mshr miss rate for ReadReq accesses
system.cpu.dcache.ReadReq_avg_mshr_miss_latency::.cpu.data 75103.092784                       # average ReadReq mshr miss latency
system.cpu.dcache.ReadReq_avg_mshr_miss_latency::total 75103.092784                       # average ReadReq mshr miss latency
system.cpu.dcache.WriteReq_hits::.cpu.data         1879                       # number of WriteReq hits
system.cpu.dcache.WriteReq_hits::total           1879                       # number of WriteReq hits
system.cpu.dcache.WriteReq_misses::.cpu.data           74                       # number of WriteReq misses
system.cpu.dcache.WriteReq_misses::total           74                       # number of WriteReq misses
system.cpu.dcache.WriteReq_miss_latency::.cpu.data      5013000                       # number of WriteReq miss cycles
system.cpu.dcache.WriteReq_miss_latency::total      5013000                       # number of WriteReq miss cycles
system.cpu.dcache.WriteReq_accesses::.cpu.data         1953                       # number of WriteReq accesses(hits+misses)
system.cpu.dcache.WriteReq_accesses::total         1953                       # number of WriteReq accesses(hits+misses)
system.cpu.dcache.WriteReq_miss_rate::.cpu.data     0.037890                       # miss rate for WriteReq accesses
system.cpu.dcache.WriteReq_miss_rate::total     0.037890                       # miss rate for WriteReq accesses
system.cpu.dcache.WriteReq_avg_miss_latency::.cpu.data 67743.243243                       # average WriteReq miss latency
system.cpu.dcache.WriteReq_avg_miss_latency::total 67743.243243                       # average WriteReq miss latency
system.cpu.dcache.WriteReq_mshr_misses::.cpu.data           74                       # number of WriteReq MSHR misses
system.cpu.dcache.WriteReq_mshr_misses::total           74                       # number of WriteReq MSHR misses
system.cpu.dcache.WriteReq_mshr_miss_latency::.cpu.data      4865000                       # number of WriteReq MSHR miss cycles
system.cpu.dcache.WriteReq_mshr_miss_latency::total      4865000                       # number of WriteReq MSHR miss cycles
system.cpu.dcache.WriteReq_mshr_miss_rate::.cpu.data     0.037890                       # mshr miss rate for WriteReq accesses
system.cpu.dcache.WriteReq_mshr_miss_rate::total     0.037890                       # mshr miss rate for WriteReq accesses
system.cpu.dcache.WriteReq_avg_mshr_miss_latency::.cpu.data 65743.243243                       # average WriteReq mshr miss latency
system.cpu.dcache.WriteReq_avg_mshr_miss_latency::total 65743.243243                       # average WriteReq mshr miss latency
system.cpu.dcache.SoftPFReq_hits::.cpu.data           22                       # number of SoftPFReq hits
system.cpu.dcache.SoftPFReq_hits::total            22                       # number of SoftPFReq hits
system.cpu.dcache.SoftPFReq_misses::.cpu.data           14                       # number of SoftPFReq misses
system.cpu.dcache.SoftPFReq_misses::total           14                       # number of SoftPFReq misses
system.cpu.dcache.SoftPFReq_accesses::.cpu.data           36                       # number of SoftPFReq accesses(hits+misses)
system.cpu.dcache.SoftPFReq_accesses::total           36                       # number of SoftPFReq accesses(hits+misses)
system.cpu.dcache.SoftPFReq_miss_rate::.cpu.data     0.388889                       # miss rate for SoftPFReq accesses
system.cpu.dcache.SoftPFReq_miss_rate::total     0.388889                       # miss rate for SoftPFReq accesses
system.cpu.dcache.SoftPFReq_mshr_misses::.cpu.data           11                       # number of SoftPFReq MSHR misses
system.cpu.dcache.SoftPFReq_mshr_misses::total           11                       # number of SoftPFReq MSHR misses
system.cpu.dcache.SoftPFReq_mshr_miss_latency::.cpu.data       758000                       # number of SoftPFReq MSHR miss cycles
system.cpu.dcache.SoftPFReq_mshr_miss_latency::total       758000                       # number of SoftPFReq MSHR miss cycles
system.cpu.dcache.SoftPFReq_mshr_miss_rate::.cpu.data     0.305556                       # mshr miss rate for SoftPFReq accesses
system.cpu.dcache.SoftPFReq_mshr_miss_rate::total     0.305556                       # mshr miss rate for SoftPFReq accesses
system.cpu.dcache.SoftPFReq_avg_mshr_miss_latency::.cpu.data 68909.090909                       # average SoftPFReq mshr miss latency
system.cpu.dcache.SoftPFReq_avg_mshr_miss_latency::total 68909.090909                       # average SoftPFReq mshr miss latency
system.cpu.dcache.LoadLockedReq_hits::.cpu.data           24                       # number of LoadLockedReq hits
system.cpu.dcache.LoadLockedReq_hits::total           24                       # number of LoadLockedReq hits
system.cpu.dcache.LoadLockedReq_accesses::.cpu.data           24                       # number of LoadLockedReq accesses(hits+misses)
system.cpu.dcache.LoadLockedReq_accesses::total           24                       # number of LoadLockedReq accesses(hits+misses)
system.cpu.dcache.StoreCondReq_hits::.cpu.data           24                       # number of StoreCondReq hits
system.cpu.dcache.StoreCondReq_hits::total           24                       # number of StoreCondReq hits
system.cpu.dcache.StoreCondReq_accesses::.cpu.data           24                       # number of StoreCondReq accesses(hits+misses)
system.cpu.dcache.StoreCondReq_accesses::total           24                       # number of StoreCondReq accesses(hits+misses)
system.cpu.dcache.power_state.pwrStateResidencyTicks::UNDEFINED     72734000                       # Cumulative time (in ticks) in various power states
system.cpu.dcache.tags.tagsinuse           111.311685                       # Cycle average of tags in use
system.cpu.dcache.tags.total_refs                3955                       # Total number of references to valid blocks.
system.cpu.dcache.tags.sampled_refs               182                       # Sample count of references to valid blocks.
system.cpu.dcache.tags.avg_refs             21.730769                       # Average number of references to valid blocks.
system.cpu.dcache.tags.warmup_cycle            178000                       # Cycle when the warmup percentage was hit.
system.cpu.dcache.tags.occ_blocks::.cpu.data   111.311685                       # Average occupied blocks per requestor
system.cpu.dcache.tags.occ_percent::.cpu.data     0.108703                       # Average percentage of cache occupancy
system.cpu.dcache.tags.occ_percent::total     0.108703                       # Average percentage of cache occupancy
system.cpu.dcache.tags.occ_task_id_blocks::1024          182                       # Occupied blocks per task id
system.cpu.dcache.tags.age_task_id_blocks_1024::0           12                       # Occupied blocks per task id
system.cpu.dcache.tags.age_task_id_blocks_1024::1          170                       # Occupied blocks per task id
system.cpu.dcache.tags.occ_task_id_percent::1024     0.177734                       # Percentage of cache occupancy per task id
system.cpu.dcache.tags.tag_accesses              8104                       # Number of tag accesses
system.cpu.dcache.tags.data_accesses             8104                       # Number of data accesses
system.cpu.dcache.tags.power_state.pwrStateResidencyTicks::UNDEFINED     72734000                       # Cumulative time (in ticks) in various power states
system.cpu.dtb.instHits                             0                       # ITB inst hits
system.cpu.dtb.instMisses                           0                       # ITB inst misses
system.cpu.dtb.readHits                             0                       # DTB read hits
system.cpu.dtb.readMisses                           0                       # DTB read misses
system.cpu.dtb.writeHits                            0                       # DTB write hits
system.cpu.dtb.writeMisses                          0                       # DTB write misses
system.cpu.dtb.inserts                              0                       # Number of times an entry is inserted into the TLB
system.cpu.dtb.flushTlb                             0                       # Number of times complete TLB was flushed
system.cpu.dtb.flushTlbMva                          0                       # Number of times TLB was flushed by MVA
system.cpu.dtb.flushTlbMvaAsid                      0                       # Number of times TLB was flushed by MVA & ASID
system.cpu.dtb.flushTlbAsid                         0                       # Number of times TLB was flushed by ASID
system.cpu.dtb.flushedEntries                       0                       # Number of entries that have been flushed from TLB
system.cpu.dtb.alignFaults                          0                       # Number of TLB faults due to alignment restrictions
system.cpu.dtb.prefetchFaults                       0                       # Number of TLB faults due to prefetch
system.cpu.dtb.domainFaults                         0                       # Number of TLB faults due to domain restrictions
system.cpu.dtb.permsFaults                          0                       # Number of TLB faults due to permissions restrictions
system.cpu.dtb.readAccesses                         0                       # DTB read accesses
system.cpu.dtb.writeAccesses                        0                       # DTB write accesses
system.cpu.dtb.instAccesses                         0                       # ITB inst accesses
system.cpu.dtb.hits                                 0                       # Total TLB (inst and data) hits
system.cpu.dtb.misses                               0                       # Total TLB (inst and data) misses
system.cpu.dtb.accesses                             0                       # Total TLB (inst and data) accesses
system.cpu.dtb.stage2_mmu.stage2_tlb.instHits            0                       # ITB inst hits
system.cpu.dtb.stage2_mmu.stage2_tlb.instMisses            0                       # ITB inst misses
system.cpu.dtb.stage2_mmu.stage2_tlb.readHits            0                       # DTB read hits
system.cpu.dtb.stage2_mmu.stage2_tlb.readMisses            0                       # DTB read misses
system.cpu.dtb.stage2_mmu.stage2_tlb.writeHits            0                       # DTB write hits
system.cpu.dtb.stage2_mmu.stage2_tlb.writeMisses            0                       # DTB write misses
system.cpu.dtb.stage2_mmu.stage2_tlb.inserts            0                       # Number of times an entry is inserted into the TLB
system.cpu.dtb.stage2_mmu.stage2_tlb.flushTlb            0                       # Number of times complete TLB was flushed
system.cpu.dtb.stage2_mmu.stage2_tlb.flushTlbMva            0                       # Number of times TLB was flushed by MVA
system.cpu.dtb.stage2_mmu.stage2_tlb.flushTlbMvaAsid            0                       # Number of times TLB was flushed by MVA & ASID
system.cpu.dtb.stage2_mmu.stage2_tlb.flushTlbAsid            0                       # Number of times TLB was flushed by ASID
system.cpu.dtb.stage2_mmu.stage2_tlb.flushedEntries            0                       # Number of entries that have been flushed from TLB
system.cpu.dtb.stage2_mmu.stage2_tlb.alignFaults            0                       # Number of TLB faults due to alignment restrictions
system.cpu.dtb.stage2_mmu.stage2_tlb.prefetchFaults            0                       # Number of TLB faults due to prefetch
system.cpu.dtb.stage2_mmu.stage2_tlb.domainFaults            0                       # Number of TLB faults due to domain restrictions
system.cpu.dtb.stage2_mmu.stage2_tlb.permsFaults            0                       # Number of TLB faults due to permissions restrictions
system.cpu.dtb.stage2_mmu.stage2_tlb.readAccesses            0                       # DTB read accesses
system.cpu.dtb.stage2_mmu.stage2_tlb.writeAccesses            0                       # DTB write accesses
system.cpu.dtb.stage2_mmu.stage2_tlb.instAccesses            0                       # ITB inst accesses
system.cpu.dtb.stage2_mmu.stage2_tlb.hits            0                       # Total TLB (inst and data) hits
system.cpu.dtb.stage2_mmu.stage2_tlb.misses            0                       # Total TLB (inst and data) misses
system.cpu.dtb.stage2_mmu.stage2_tlb.accesses            0                       # Total TLB (inst and data) accesses
system.cpu.dtb.stage2_mmu.stage2_tlb.walker.walks            0                       # Table walker walks requested
system.cpu.dtb.stage2_mmu.stage2_tlb.walker.requestOrigin_Requested::Data            0                       # Table walker requests started/completed, data/inst
system.cpu.dtb.stage2_mmu.stage2_tlb.walker.requestOrigin_Requested::Inst            0                       # Table walker requests started/completed, data/inst
system.cpu.dtb.stage2_mmu.stage2_tlb.walker.requestOrigin_Requested::total            0                       # Table walker requests started/completed, data/inst
system.cpu.dtb.stage2_mmu.stage2_tlb.walker.requestOrigin_Completed::Data            0                       # Table walker requests started/completed, data/inst
system.cpu.dtb.stage2_mmu.stage2_tlb.walker.requestOrigin_Completed::Inst            0                       # Table walker requests started/completed, data/inst
system.cpu.dtb.stage2_mmu.stage2_tlb.walker.requestOrigin_Completed::total            0                       # Table walker requests started/completed, data/inst
system.cpu.dtb.stage2_mmu.stage2_tlb.walker.requestOrigin::total            0                       # Table walker requests started/completed, data/inst
system.cpu.dtb.stage2_mmu.stage2_tlb.walker.power_state.pwrStateResidencyTicks::UNDEFINED     72734000                       # Cumulative time (in ticks) in various power states
system.cpu.dtb.walker.walks                         0                       # Table walker walks requested
system.cpu.dtb.walker.requestOrigin_Requested::Data            0                       # Table walker requests started/completed, data/inst
system.cpu.dtb.walker.requestOrigin_Requested::Inst            0                       # Table walker requests started/completed, data/inst
system.cpu.dtb.walker.requestOrigin_Requested::total            0                       # Table walker requests started/completed, data/inst
system.cpu.dtb.walker.requestOrigin_Completed::Data            0                       # Table walker requests started/completed, data/inst
system.cpu.dtb.walker.requestOrigin_Completed::Inst            0                       # Table walker requests started/completed, data/inst
system.cpu.dtb.walker.requestOrigin_Completed::total            0                       # Table walker requests started/completed, data/inst
system.cpu.dtb.walker.requestOrigin::total            0                       # Table walker requests started/completed, data/inst
system.cpu.dtb.walker.power_state.pwrStateResidencyTicks::UNDEFINED     72734000                       # Cumulative time (in ticks) in various power states
system.cpu.icache.demand_hits::.cpu.inst        13170                       # number of demand (read+write) hits
system.cpu.icache.demand_hits::total            13170                       # number of demand (read+write) hits
system.cpu.icache.overall_hits::.cpu.inst        13170                       # number of overall hits
system.cpu.icache.overall_hits::total           13170                       # number of overall hits
system.cpu.icache.demand_misses::.cpu.inst          345                       # number of demand (read+write) misses
system.cpu.icache.demand_misses::total            345                       # number of demand (read+write) misses
system.cpu.icache.overall_misses::.cpu.inst          345                       # number of overall misses
system.cpu.icache.overall_misses::total           345                       # number of overall misses
system.cpu.icache.demand_miss_latency::.cpu.inst     24344000                       # number of demand (read+write) miss cycles
system.cpu.icache.demand_miss_latency::total     24344000                       # number of demand (read+write) miss cycles
system.cpu.icache.overall_miss_latency::.cpu.inst     24344000                       # number of overall miss cycles
system.cpu.icache.overall_miss_latency::total     24344000                       # number of overall miss cycles
system.cpu.icache.demand_accesses::.cpu.inst        13515                       # number of demand (read+write) accesses
system.cpu.icache.demand_accesses::total        13515                       # number of demand (read+write) accesses
system.cpu.icache.overall_accesses::.cpu.inst        13515                       # number of overall (read+write) accesses
system.cpu.icache.overall_accesses::total        13515                       # number of overall (read+write) accesses
system.cpu.icache.demand_miss_rate::.cpu.inst     0.025527                       # miss rate for demand accesses
system.cpu.icache.demand_miss_rate::total     0.025527                       # miss rate for demand accesses
system.cpu.icache.overall_miss_rate::.cpu.inst     0.025527                       # miss rate for overall accesses
system.cpu.icache.overall_miss_rate::total     0.025527                       # miss rate for overall accesses
system.cpu.icache.demand_avg_miss_latency::.cpu.inst 70562.318841                       # average overall miss latency
system.cpu.icache.demand_avg_miss_latency::total 70562.318841                       # average overall miss latency
system.cpu.icache.overall_avg_miss_latency::.cpu.inst 70562.318841                       # average overall miss latency
system.cpu.icache.overall_avg_miss_latency::total 70562.318841                       # average overall miss latency
system.cpu.icache.blocked_cycles::no_mshrs            0                       # number of cycles access was blocked
system.cpu.icache.blocked_cycles::no_targets            0                       # number of cycles access was blocked
system.cpu.icache.blocked::no_mshrs                 0                       # number of cycles access was blocked
system.cpu.icache.blocked::no_targets               0                       # number of cycles access was blocked
system.cpu.icache.avg_blocked_cycles::no_mshrs          nan                       # average number of cycles each access was blocked
system.cpu.icache.avg_blocked_cycles::no_targets          nan                       # average number of cycles each access was blocked
system.cpu.icache.writebacks::.writebacks           52                       # number of writebacks
system.cpu.icache.writebacks::total                52                       # number of writebacks
system.cpu.icache.demand_mshr_misses::.cpu.inst          345                       # number of demand (read+write) MSHR misses
system.cpu.icache.demand_mshr_misses::total          345                       # number of demand (read+write) MSHR misses
system.cpu.icache.overall_mshr_misses::.cpu.inst          345                       # number of overall MSHR misses
system.cpu.icache.overall_mshr_misses::total          345                       # number of overall MSHR misses
system.cpu.icache.demand_mshr_miss_latency::.cpu.inst     23654000                       # number of demand (read+write) MSHR miss cycles
system.cpu.icache.demand_mshr_miss_latency::total     23654000                       # number of demand (read+write) MSHR miss cycles
system.cpu.icache.overall_mshr_miss_latency::.cpu.inst     23654000                       # number of overall MSHR miss cycles
system.cpu.icache.overall_mshr_miss_latency::total     23654000                       # number of overall MSHR miss cycles
system.cpu.icache.demand_mshr_miss_rate::.cpu.inst     0.025527                       # mshr miss rate for demand accesses
system.cpu.icache.demand_mshr_miss_rate::total     0.025527                       # mshr miss rate for demand accesses
system.cpu.icache.overall_mshr_miss_rate::.cpu.inst     0.025527                       # mshr miss rate for overall accesses
system.cpu.icache.overall_mshr_miss_rate::total     0.025527                       # mshr miss rate for overall accesses
system.cpu.icache.demand_avg_mshr_miss_latency::.cpu.inst 68562.318841                       # average overall mshr miss latency
system.cpu.icache.demand_avg_mshr_miss_latency::total 68562.318841                       # average overall mshr miss latency
system.cpu.icache.overall_avg_mshr_miss_latency::.cpu.inst 68562.318841                       # average overall mshr miss latency
system.cpu.icache.overall_avg_mshr_miss_latency::total 68562.318841                       # average overall mshr miss latency
system.cpu.icache.replacements                     52                       # number of replacements
system.cpu.icache.ReadReq_hits::.cpu.inst        13170                       # number of ReadReq hits
system.cpu.icache.ReadReq_hits::total           13170                       # number of ReadReq hits
system.cpu.icache.ReadReq_misses::.cpu.inst          345                       # number of ReadReq misses
system.cpu.icache.ReadReq_misses::total           345                       # number of ReadReq misses
system.cpu.icache.ReadReq_miss_latency::.cpu.inst     24344000                       # number of ReadReq miss cycles
system.cpu.icache.ReadReq_miss_latency::total     24344000                       # number of ReadReq miss cycles
system.cpu.icache.ReadReq_accesses::.cpu.inst        13515                       # number of ReadReq accesses(hits+misses)
system.cpu.icache.ReadReq_accesses::total        13515                       # number of ReadReq accesses(hits+misses)
system.cpu.icache.ReadReq_miss_rate::.cpu.inst     0.025527                       # miss rate for ReadReq accesses
system.cpu.icache.ReadReq_miss_rate::total     0.025527                       # miss rate for ReadReq accesses
system.cpu.icache.ReadReq_avg_miss_latency::.cpu.inst 70562.318841                       # average ReadReq miss latency
system.cpu.icache.ReadReq_avg_miss_latency::total 70562.318841                       # average ReadReq miss latency
system.cpu.icache.ReadReq_mshr_misses::.cpu.inst          345                       # number of ReadReq MSHR misses
system.cpu.icache.ReadReq_mshr_misses::total          345                       # number of ReadReq MSHR misses
system.cpu.icache.ReadReq_mshr_miss_latency::.cpu.inst     23654000                       # number of ReadReq MSHR miss cycles
system.cpu.icache.ReadReq_mshr_miss_latency::total     23654000                       # number of ReadReq MSHR miss cycles
system.cpu.icache.ReadReq_mshr_miss_rate::.cpu.inst     0.025527                       # mshr miss rate for ReadReq accesses
system.cpu.icache.ReadReq_mshr_miss_rate::total     0.025527                       # mshr miss rate for ReadReq accesses
system.cpu.icache.ReadReq_avg_mshr_miss_latency::.cpu.inst 68562.318841                       # average ReadReq mshr miss latency
system.cpu.icache.ReadReq_avg_mshr_miss_latency::total 68562.318841                       # average ReadReq mshr miss latency
system.cpu.icache.power_state.pwrStateResidencyTicks::UNDEFINED     72734000                       # Cumulative time (in ticks) in various power states
system.cpu.icache.tags.tagsinuse           156.312785                       # Cycle average of tags in use
system.cpu.icache.tags.total_refs               13515                       # Total number of references to valid blocks.
system.cpu.icache.tags.sampled_refs               345                       # Sample count of references to valid blocks.
system.cpu.icache.tags.avg_refs             39.173913                       # Average number of references to valid blocks.
system.cpu.icache.tags.warmup_cycle             88000                       # Cycle when the warmup percentage was hit.
system.cpu.icache.tags.occ_blocks::.cpu.inst   156.312785                       # Average occupied blocks per requestor
system.cpu.icache.tags.occ_percent::.cpu.inst     0.305298                       # Average percentage of cache occupancy
system.cpu.icache.tags.occ_percent::total     0.305298                       # Average percentage of cache occupancy
system.cpu.icache.tags.occ_task_id_blocks::1024          293                       # Occupied blocks per task id
system.cpu.icache.tags.age_task_id_blocks_1024::0           59                       # Occupied blocks per task id
system.cpu.icache.tags.age_task_id_blocks_1024::1          234                       # Occupied blocks per task id
system.cpu.icache.tags.occ_task_id_percent::1024     0.572266                       # Percentage of cache occupancy per task id
system.cpu.icache.tags.tag_accesses             27375                       # Number of tag accesses
system.cpu.icache.tags.data_accesses            27375                       # Number of data accesses
system.cpu.icache.tags.power_state.pwrStateResidencyTicks::UNDEFINED     72734000                       # Cumulative time (in ticks) in various power states
system.cpu.itb.instHits                             0                       # ITB inst hits
system.cpu.itb.instMisses                           0                       # ITB inst misses
system.cpu.itb.readHits                             0                       # DTB read hits
system.cpu.itb.readMisses                           0                       # DTB read misses
system.cpu.itb.writeHits                            0                       # DTB write hits
system.cpu.itb.writeMisses                          0                       # DTB write misses
system.cpu.itb.inserts                              0                       # Number of times an entry is inserted into the TLB
system.cpu.itb.flushTlb                             0                       # Number of times complete TLB was flushed
system.cpu.itb.flushTlbMva                          0                       # Number of times TLB was flushed by MVA
system.cpu.itb.flushTlbMvaAsid                      0                       # Number of times TLB was flushed by MVA & ASID
system.cpu.itb.flushTlbAsid                         0                       # Number of times TLB was flushed by ASID
system.cpu.itb.flushedEntries                       0                       # Number of entries that have been flushed from TLB
system.cpu.itb.alignFaults                          0                       # Number of TLB faults due to alignment restrictions
system.cpu.itb.prefetchFaults                       0                       # Number of TLB faults due to prefetch
system.cpu.itb.domainFaults                         0                       # Number of TLB faults due to domain restrictions
system.cpu.itb.permsFaults                          0                       # Number of TLB faults due to permissions restrictions
system.cpu.itb.readAccesses                         0                       # DTB read accesses
system.cpu.itb.writeAccesses                        0                       # DTB write accesses
system.cpu.itb.instAccesses                         0                       # ITB inst accesses
system.cpu.itb.hits                                 0                       # Total TLB (inst and data) hits
system.cpu.itb.misses                               0                       # Total TLB (inst and data) misses
system.cpu.itb.accesses                             0                       # Total TLB (inst and data) accesses
system.cpu.itb.stage2_mmu.stage2_tlb.instHits            0                       # ITB inst hits
system.cpu.itb.stage2_mmu.stage2_tlb.instMisses            0                       # ITB inst misses
system.cpu.itb.stage2_mmu.stage2_tlb.readHits            0                       # DTB read hits
system.cpu.itb.stage2_mmu.stage2_tlb.readMisses            0                       # DTB read misses
system.cpu.itb.stage2_mmu.stage2_tlb.writeHits            0                       # DTB write hits
system.cpu.itb.stage2_mmu.stage2_tlb.writeMisses            0                       # DTB write misses
system.cpu.itb.stage2_mmu.stage2_tlb.inserts            0                       # Number of times an entry is inserted into the TLB
system.cpu.itb.stage2_mmu.stage2_tlb.flushTlb            0                       # Number of times complete TLB was flushed
system.cpu.itb.stage2_mmu.stage2_tlb.flushTlbMva            0                       # Number of times TLB was flushed by MVA
system.cpu.itb.stage2_mmu.stage2_tlb.flushTlbMvaAsid            0                       # Number of times TLB was flushed by MVA & ASID
system.cpu.itb.stage2_mmu.stage2_tlb.flushTlbAsid            0                       # Number of times TLB was flushed by ASID
system.cpu.itb.stage2_mmu.stage2_tlb.flushedEntries            0                       # Number of entries that have been flushed from TLB
system.cpu.itb.stage2_mmu.stage2_tlb.alignFaults            0                       # Number of TLB faults due to alignment restrictions
system.cpu.itb.stage2_mmu.stage2_tlb.prefetchFaults            0                       # Number of TLB faults due to prefetch
system.cpu.itb.stage2_mmu.stage2_tlb.domainFaults            0                       # Number of TLB faults due to domain restrictions
system.cpu.itb.stage2_mmu.stage2_tlb.permsFaults            0                       # Number of TLB faults due to permissions restrictions
system.cpu.itb.stage2_mmu.stage2_tlb.readAccesses            0                       # DTB read accesses
system.cpu.itb.stage2_mmu.stage2_tlb.writeAccesses            0                       # DTB write accesses
system.cpu.itb.stage2_mmu.stage2_tlb.instAccesses            0                       # ITB inst accesses
system.cpu.itb.stage2_mmu.stage2_tlb.hits            0                       # Total TLB (inst and data) hits
system.cpu.itb.stage2_mmu.stage2_tlb.misses            0                       # Total TLB (inst and data) misses
system.cpu.itb.stage2_mmu.stage2_tlb.accesses            0                       # Total TLB (inst and data) accesses
system.cpu.itb.stage2_mmu.stage2_tlb.walker.walks            0                       # Table walker walks requested
system.cpu.itb.stage2_mmu.stage2_tlb.walker.requestOrigin_Requested::Data            0                       # Table walker requests started/completed, data/inst
system.cpu.itb.stage2_mmu.stage2_tlb.walker.requestOrigin_Requested::Inst            0                       # Table walker requests started/completed, data/inst
system.cpu.itb.stage2_mmu.stage2_tlb.walker.requestOrigin_Requested::total            0                       # Table walker requests started/completed, data/inst
system.cpu.itb.stage2_mmu.stage2_tlb.walker.requestOrigin_Completed::Data            0                       # Table walker requests started/completed, data/inst
system.cpu.itb.stage2_mmu.stage2_tlb.walker.requestOrigin_Completed::Inst            0                       # Table walker requests started/completed, data/inst
system.cpu.itb.stage2_mmu.stage2_tlb.walker.requestOrigin_Completed::total            0                       # Table walker requests started/completed, data/inst
system.cpu.itb.stage2_mmu.stage2_tlb.walker.requestOrigin::total            0                       # Table walker requests started/completed, data/inst
system.cpu.itb.stage2_mmu.stage2_tlb.walker.power_state.pwrStateResidencyTicks::UNDEFINED     72734000                       # Cumulative time (in ticks) in various power states
system.cpu.itb.walker.walks                         0                       # Table walker walks requested
system.cpu.itb.walker.requestOrigin_Requested::Data            0                       # Table walker requests started/completed, data/inst
system.cpu.itb.walker.requestOrigin_Requested::Inst            0                       # Table walker requests started/completed, data/inst
system.cpu.itb.walker.requestOrigin_Requested::total            0                       # Table walker requests started/completed, data/inst
system.cpu.itb.walker.requestOrigin_Completed::Data            0                       # Table walker requests started/completed, data/inst
system.cpu.itb.walker.requestOrigin_Completed::Inst            0                       # Table walker requests started/completed, data/inst
system.cpu.itb.walker.requestOrigin_Completed::total            0                       # Table walker requests started/completed, data/inst
system.cpu.itb.walker.requestOrigin::total            0                       # Table walker requests started/completed, data/inst
system.cpu.itb.walker.power_state.pwrStateResidencyTicks::UNDEFINED     72734000                       # Cumulative time (in ticks) in various power states
system.cpu.power_state.pwrStateResidencyTicks::ON     72734000                       # Cumulative time (in ticks) in various power states
system.cpu.thread0.numInsts                         0                       # Number of Instructions committed
system.cpu.thread0.numOps                           0                       # Number of Ops committed
system.cpu.thread0.numMemRefs                       0                       # Number of Memory References
system.cpu_clk_domain.clock                      1000                       # Clock period in ticks
system.cpu_voltage_domain.voltage                   1                       # Voltage in Volts
system.mem_ctrls.avgPriority_.writebacks::samples        51.00                       # Average QoS priority value for accepted requests
system.mem_ctrls.avgPriority_.cpu.inst::samples       338.00                       # Average QoS priority value for accepted requests
system.mem_ctrls.avgPriority_.cpu.data::samples       182.00                       # Average QoS priority value for accepted requests
system.mem_ctrls.priorityMinLatency      0.000000018750                       # per QoS priority minimum request to response latency (s)
system.mem_ctrls.priorityMaxLatency      0.000071120750                       # per QoS priority maximum request to response latency (s)
system.mem_ctrls.numReadWriteTurnArounds            2                       # Number of turnarounds from READ to WRITE
system.mem_ctrls.numWriteReadTurnArounds            2                       # Number of turnarounds from WRITE to READ
system.mem_ctrls.numStayReadState                1105                       # Number of times bus staying in READ state
system.mem_ctrls.numStayWriteState                 34                       # Number of times bus staying in WRITE state
system.mem_ctrls.readReqs                         527                       # Number of read requests accepted
system.mem_ctrls.writeReqs                         51                       # Number of write requests accepted
system.mem_ctrls.readBursts                       527                       # Number of controller read bursts, including those serviced by the write queue
system.mem_ctrls.writeBursts                       51                       # Number of controller write bursts, including those merged in the write queue
system.mem_ctrls.servicedByWrQ                      7                       # Number of controller read bursts serviced by the write queue
system.mem_ctrls.mergedWrBursts                     0                       # Number of controller write bursts merged with an existing one
system.mem_ctrls.neitherReadNorWriteReqs            0                       # Number of requests that are neither read nor write
system.mem_ctrls.avgRdQLen                       1.01                       # Average read queue length when enqueuing
system.mem_ctrls.avgWrQLen                       9.14                       # Average write queue length when enqueuing
system.mem_ctrls.numRdRetry                         0                       # Number of times read queue was full causing retry
system.mem_ctrls.numWrRetry                         0                       # Number of times write queue was full causing retry
system.mem_ctrls.readPktSize::0                     0                       # Read request sizes (log2)
system.mem_ctrls.readPktSize::1                     0                       # Read request sizes (log2)
system.mem_ctrls.readPktSize::2                     0                       # Read request sizes (log2)
system.mem_ctrls.readPktSize::3                     0                       # Read request sizes (log2)
system.mem_ctrls.readPktSize::4                     0                       # Read request sizes (log2)
system.mem_ctrls.readPktSize::5                     0                       # Read request sizes (log2)
system.mem_ctrls.readPktSize::6                   527                       # Read request sizes (log2)
system.mem_ctrls.writePktSize::0                    0                       # Write request sizes (log2)
system.mem_ctrls.writePktSize::1                    0                       # Write request sizes (log2)
system.mem_ctrls.writePktSize::2                    0                       # Write request sizes (log2)
system.mem_ctrls.writePktSize::3                    0                       # Write request sizes (log2)
system.mem_ctrls.writePktSize::4                    0                       # Write request sizes (log2)
system.mem_ctrls.writePktSize::5                    0                       # Write request sizes (log2)
system.mem_ctrls.writePktSize::6                   51                       # Write request sizes (log2)
system.mem_ctrls.rdQLenPdf::0                     516                       # What read queue length does an incoming req see
system.mem_ctrls.rdQLenPdf::1                       4                       # What read queue length does an incoming req see
system.mem_ctrls.rdQLenPdf::2                       0                       # What read queue length does an incoming req see
system.mem_ctrls.rdQLenPdf::3                       0                       # What read queue length does an incoming req see
system.mem_ctrls.rdQLenPdf::4                       0                       # What read queue length does an incoming req see
system.mem_ctrls.rdQLenPdf::5                       0                       # What read queue length does an incoming req see
system.mem_ctrls.rdQLenPdf::6                       0                       # What read queue length does an incoming req see
system.mem_ctrls.rdQLenPdf::7                       0                       # What read queue length does an incoming req see
system.mem_ctrls.rdQLenPdf::8                       0                       # What read queue length does an incoming req see
system.mem_ctrls.rdQLenPdf::9                       0                       # What read queue length does an incoming req see
system.mem_ctrls.rdQLenPdf::10                      0                       # What read queue length does an incoming req see
system.mem_ctrls.rdQLenPdf::11                      0                       # What read queue length does an incoming req see
system.mem_ctrls.rdQLenPdf::12                      0                       # What read queue length does an incoming req see
system.mem_ctrls.rdQLenPdf::13                      0                       # What read queue length does an incoming req see
system.mem_ctrls.rdQLenPdf::14                      0                       # What read queue length does an incoming req see
system.mem_ctrls.rdQLenPdf::15                      0                       # What read queue length does an incoming req see
system.mem_ctrls.rdQLenPdf::16                      0                       # What read queue length does an incoming req see
system.mem_ctrls.rdQLenPdf::17                      0                       # What read queue length does an incoming req see
system.mem_ctrls.rdQLenPdf::18                      0                       # What read queue length does an incoming req see
system.mem_ctrls.rdQLenPdf::19                      0                       # What read queue length does an incoming req see
system.mem_ctrls.rdQLenPdf::20                      0                       # What read queue length does an incoming req see
system.mem_ctrls.rdQLenPdf::21                      0                       # What read queue length does an incoming req see
system.mem_ctrls.rdQLenPdf::22                      0                       # What read queue length does an incoming req see
system.mem_ctrls.rdQLenPdf::23                      0                       # What read queue length does an incoming req see
system.mem_ctrls.rdQLenPdf::24                      0                       # What read queue length does an incoming req see
system.mem_ctrls.rdQLenPdf::25                      0                       # What read queue length does an incoming req see
system.mem_ctrls.rdQLenPdf::26                      0                       # What read queue length does an incoming req see
system.mem_ctrls.rdQLenPdf::27                      0                       # What read queue length does an incoming req see
system.mem_ctrls.rdQLenPdf::28                      0                       # What read queue length does an incoming req see
system.mem_ctrls.rdQLenPdf::29                      0                       # What read queue length does an incoming req see
system.mem_ctrls.rdQLenPdf::30                      0                       # What read queue length does an incoming req see
system.mem_ctrls.rdQLenPdf::31                      0                       # What read queue length does an incoming req see
system.mem_ctrls.wrQLenPdf::0                       1                       # What write queue length does an incoming req see
system.mem_ctrls.wrQLenPdf::1                       1                       # What write queue length does an incoming req see
system.mem_ctrls.wrQLenPdf::2                       1                       # What write queue length does an incoming req see
system.mem_ctrls.wrQLenPdf::3                       1                       # What write queue length does an incoming req see
system.mem_ctrls.wrQLenPdf::4                       1                       # What write queue length does an incoming req see
system.mem_ctrls.wrQLenPdf::5                       1                       # What write queue length does an incoming req see
system.mem_ctrls.wrQLenPdf::6                       1                       # What write queue length does an incoming req see
system.mem_ctrls.wrQLenPdf::7                       1                       # What write queue length does an incoming req see
system.mem_ctrls.wrQLenPdf::8                       1                       # What write queue length does an incoming req see
system.mem_ctrls.wrQLenPdf::9                       1                       # What write queue length does an incoming req see
system.mem_ctrls.wrQLenPdf::10                      1                       # What write queue length does an incoming req see
system.mem_ctrls.wrQLenPdf::11                      1                       # What write queue length does an incoming req see
system.mem_ctrls.wrQLenPdf::12                      1                       # What write queue length does an incoming req see
system.mem_ctrls.wrQLenPdf::13                      1                       # What write queue length does an incoming req see
system.mem_ctrls.wrQLenPdf::14                      1                       # What write queue length does an incoming req see
system.mem_ctrls.wrQLenPdf::15                      2                       # What write queue length does an incoming req see
system.mem_ctrls.wrQLenPdf::16                      2                       # What write queue length does an incoming req see
system.mem_ctrls.wrQLenPdf::17                      2                       # What write queue length does an incoming req see
system.mem_ctrls.wrQLenPdf::18                      2                       # What write queue length does an incoming req see
system.mem_ctrls.wrQLenPdf::19                      2                       # What write queue length does an incoming req see
system.mem_ctrls.wrQLenPdf::20                      2                       # What write queue length does an incoming req see
system.mem_ctrls.wrQLenPdf::21                      2                       # What write queue length does an incoming req see
system.mem_ctrls.wrQLenPdf::22                      2                       # What write queue length does an incoming req see
system.mem_ctrls.wrQLenPdf::23                      2                       # What write queue length does an incoming req see
system.mem_ctrls.wrQLenPdf::24                      2                       # What write queue length does an incoming req see
system.mem_ctrls.wrQLenPdf::25                      2                       # What write queue length does an incoming req see
system.mem_ctrls.wrQLenPdf::26                      2                       # What write queue length does an incoming req see
system.mem_ctrls.wrQLenPdf::27                      2                       # What write queue length does an incoming req see
system.mem_ctrls.wrQLenPdf::28                      2                       # What write queue length does an incoming req see
system.mem_ctrls.wrQLenPdf::29                      2                       # What write queue length does an incoming req see
system.mem_ctrls.wrQLenPdf::30                      2                       # What write queue length does an incoming req see
system.mem_ctrls.wrQLenPdf::31                      2                       # What write queue length does an incoming req see
system.mem_ctrls.wrQLenPdf::32                      2                       # What write queue length does an incoming req see
system.mem_ctrls.wrQLenPdf::33                      0                       # What write queue length does an incoming req see
system.mem_ctrls.wrQLenPdf::34                      0                       # What write queue length does an incoming req see
system.mem_ctrls.wrQLenPdf::35                      0                       # What write queue length does an incoming req see
system.mem_ctrls.wrQLenPdf::36                      0                       # What write queue length does an incoming req see
system.mem_ctrls.wrQLenPdf::37                      0                       # What write queue length does an incoming req see
system.mem_ctrls.wrQLenPdf::38                      0                       # What write queue length does an incoming req see
system.mem_ctrls.wrQLenPdf::39                      0                       # What write queue length does an incoming req see
system.mem_ctrls.wrQLenPdf::40                      0                       # What write queue length does an incoming req see
system.mem_ctrls.wrQLenPdf::41                      0                       # What write queue length does an incoming req see
system.mem_ctrls.wrQLenPdf::42                      0                       # What write queue length does an incoming req see
system.mem_ctrls.wrQLenPdf::43                      0                       # What write queue length does an incoming req see
system.mem_ctrls.wrQLenPdf::44                      0                       # What write queue length does an incoming req see
system.mem_ctrls.wrQLenPdf::45                      0                       # What write queue length does an incoming req see
system.mem_ctrls.wrQLenPdf::46                      0                       # What write queue length does an incoming req see
system.mem_ctrls.wrQLenPdf::47                      0                       # What write queue length does an incoming req see
system.mem_ctrls.wrQLenPdf::48                      0                       # What write queue length does an incoming req see
system.mem_ctrls.wrQLenPdf::49                      0                       # What write queue length does an incoming req see
system.mem_ctrls.wrQLenPdf::50                      0                       # What write queue length does an incoming req see
system.mem_ctrls.wrQLenPdf::51                      0                       # What write queue length does an incoming req see
system.mem_ctrls.wrQLenPdf::52                      0                       # What write queue length does an incoming req see
system.mem_ctrls.wrQLenPdf::53                      0                       # What write queue length does an incoming req see
system.mem_ctrls.wrQLenPdf::54                      0                       # What write queue length does an incoming req see
system.mem_ctrls.wrQLenPdf::55                      0                       # What write queue length does an incoming req see
system.mem_ctrls.wrQLenPdf::56                      0                       # What write queue length does an incoming req see
system.mem_ctrls.wrQLenPdf::57                      0                       # What write queue length does an incoming req see
system.mem_ctrls.wrQLenPdf::58                      0                       # What write queue length does an incoming req see
system.mem_ctrls.wrQLenPdf::59                      0                       # What write queue length does an incoming req see
system.mem_ctrls.wrQLenPdf::60                      0                       # What write queue length does an incoming req see
system.mem_ctrls.wrQLenPdf::61                      0                       # What write queue length does an incoming req see
system.mem_ctrls.wrQLenPdf::62                      0                       # What write queue length does an incoming req see
system.mem_ctrls.wrQLenPdf::63                      0                       # What write queue length does an incoming req see
system.mem_ctrls.rdPerTurnAround::samples            2                       # Reads before turning the bus around for writes
system.mem_ctrls.rdPerTurnAround::mean            250                       # Reads before turning the bus around for writes
system.mem_ctrls.rdPerTurnAround::gmean    147.295621                       # Reads before turning the bus around for writes
system.mem_ctrls.rdPerTurnAround::stdev    285.671140                       # Reads before turning the bus around for writes
system.mem_ctrls.rdPerTurnAround::48-63             1     50.00%     50.00% # Reads before turning the bus around for writes
system.mem_ctrls.rdPerTurnAround::448-463            1     50.00%    100.00% # Reads before turning the bus around for writes
system.mem_ctrls.rdPerTurnAround::total             2                       # Reads before turning the bus around for writes
system.mem_ctrls.wrPerTurnAround::samples            2                       # Writes before turning the bus around for reads
system.mem_ctrls.wrPerTurnAround::mean             17                       # Writes before turning the bus around for reads
system.mem_ctrls.wrPerTurnAround::gmean     16.970563                       # Writes before turning the bus around for reads
system.mem_ctrls.wrPerTurnAround::stdev      1.414214                       # Writes before turning the bus around for reads
system.mem_ctrls.wrPerTurnAround::16                1     50.00%     50.00% # Writes before turning the bus around for reads
system.mem_ctrls.wrPerTurnAround::18                1     50.00%    100.00% # Writes before turning the bus around for reads
system.mem_ctrls.wrPerTurnAround::total             2                       # Writes before turning the bus around for reads
system.mem_ctrls.bytesReadWrQ                     448                       # Total number of bytes read from write queue
system.mem_ctrls.bytesReadSys                   33728                       # Total read bytes from the system interface side
system.mem_ctrls.bytesWrittenSys                 3264                       # Total written bytes from the system interface side
system.mem_ctrls.avgRdBWSys                    463.72                       # Average system read bandwidth in MiByte/s
system.mem_ctrls.avgWrBWSys                     44.88                       # Average system write bandwidth in MiByte/s
system.mem_ctrls.totGap                      72706000                       # Total gap between requests
system.mem_ctrls.avgGap                     125788.93                       # Average gap between requests
system.mem_ctrls.requestorReadBytes::.cpu.inst        21632                       # Per-requestor bytes read from memory
system.mem_ctrls.requestorReadBytes::.cpu.data        11648                       # Per-requestor bytes read from memory
system.mem_ctrls.requestorWriteBytes::.writebacks         2176                       # Per-requestor bytes write to memory
system.mem_ctrls.requestorReadRate::.cpu.inst 297412489.344735622406                       # Per-requestor bytes read from memory rate (Bytes/sec)
system.mem_ctrls.requestorReadRate::.cpu.data 160145186.570242255926                       # Per-requestor bytes read from memory rate (Bytes/sec)
system.mem_ctrls.requestorWriteRate::.writebacks 29917232.655979324132                       # Per-requestor bytes write to memory rate (Bytes/sec)
system.mem_ctrls.requestorReadAccesses::.cpu.inst          345                       # Per-requestor read serviced memory accesses
system.mem_ctrls.requestorReadAccesses::.cpu.data          182                       # Per-requestor read serviced memory accesses
system.mem_ctrls.requestorWriteAccesses::.writebacks           51                       # Per-requestor write serviced memory accesses
system.mem_ctrls.requestorReadTotalLat::.cpu.inst      8752750                       # Per-requestor read total memory access latency
system.mem_ctrls.requestorReadTotalLat::.cpu.data      4969500                       # Per-requestor read total memory access latency
system.mem_ctrls.requestorWriteTotalLat::.writebacks    538303500                       # Per-requestor write total memory access latency
system.mem_ctrls.requestorReadAvgLat::.cpu.inst     25370.29                       # Per-requestor read average memory access latency
system.mem_ctrls.requestorReadAvgLat::.cpu.data     27304.95                       # Per-requestor read average memory access latency
system.mem_ctrls.requestorWriteAvgLat::.writebacks  10554970.59                       # Per-requestor write average memory access latency
system.mem_ctrls.dram.bytes_read::.cpu.inst        22080                       # Number of bytes read from this memory
system.mem_ctrls.dram.bytes_read::.cpu.data        11648                       # Number of bytes read from this memory
system.mem_ctrls.dram.bytes_read::total         33728                       # Number of bytes read from this memory
system.mem_ctrls.dram.bytes_inst_read::.cpu.inst        22080                       # Number of instructions bytes read from this memory
system.mem_ctrls.dram.bytes_inst_read::total        22080                       # Number of instructions bytes read from this memory
system.mem_ctrls.dram.num_reads::.cpu.inst          345                       # Number of read requests responded to by this memory
system.mem_ctrls.dram.num_reads::.cpu.data          182                       # Number of read requests responded to by this memory
system.mem_ctrls.dram.num_reads::total            527                       # Number of read requests responded to by this memory
system.mem_ctrls.dram.bw_read::.cpu.inst    303571920                       # Total read bandwidth from this memory (bytes/s)
system.mem_ctrls.dram.bw_read::.cpu.data    160145187                       # Total read bandwidth from this memory (bytes/s)
system.mem_ctrls.dram.bw_read::total        463717106                       # Total read bandwidth from this memory (bytes/s)
system.mem_ctrls.dram.bw_inst_read::.cpu.inst    303571920                       # Instruction read bandwidth from this memory (bytes/s)
system.mem_ctrls.dram.bw_inst_read::total    303571920                       # Instruction read bandwidth from this memory (bytes/s)
system.mem_ctrls.dram.bw_total::.cpu.inst    303571920                       # Total bandwidth to/from this memory (bytes/s)
system.mem_ctrls.dram.bw_total::.cpu.data    160145187                       # Total bandwidth to/from this memory (bytes/s)
system.mem_ctrls.dram.bw_total::total       463717106                       # Total bandwidth to/from this memory (bytes/s)
system.mem_ctrls.dram.readBursts                  520                       # Number of DRAM read bursts
system.mem_ctrls.dram.writeBursts                  34                       # Number of DRAM write bursts
system.mem_ctrls.dram.perBankRdBursts::0           47                       # Per bank write bursts
system.mem_ctrls.dram.perBankRdBursts::1           41                       # Per bank write bursts
system.mem_ctrls.dram.perBankRdBursts::2           19                       # Per bank write bursts
system.mem_ctrls.dram.perBankRdBursts::3           19                       # Per bank write bursts
system.mem_ctrls.dram.perBankRdBursts::4           19                       # Per bank write bursts
system.mem_ctrls.dram.perBankRdBursts::5           22                       # Per bank write bursts
system.mem_ctrls.dram.perBankRdBursts::6           42                       # Per bank write bursts
system.mem_ctrls.dram.perBankRdBursts::7           36                       # Per bank write bursts
system.mem_ctrls.dram.perBankRdBursts::8           49                       # Per bank write bursts
system.mem_ctrls.dram.perBankRdBursts::9           81                       # Per bank write bursts
system.mem_ctrls.dram.perBankRdBursts::10           50                       # Per bank write bursts
system.mem_ctrls.dram.perBankRdBursts::11           61                       # Per bank write bursts
system.mem_ctrls.dram.perBankRdBursts::12           12                       # Per bank write bursts
system.mem_ctrls.dram.perBankRdBursts::13           10                       # Per bank write bursts
system.mem_ctrls.dram.perBankRdBursts::14           10                       # Per bank write bursts
system.mem_ctrls.dram.perBankRdBursts::15            2                       # Per bank write bursts
system.mem_ctrls.dram.perBankWrBursts::0            9                       # Per bank write bursts
system.mem_ctrls.dram.perBankWrBursts::1            0                       # Per bank write bursts
system.mem_ctrls.dram.perBankWrBursts::2            0                       # Per bank write bursts
system.mem_ctrls.dram.perBankWrBursts::3            0                       # Per bank write bursts
system.mem_ctrls.dram.perBankWrBursts::4            0                       # Per bank write bursts
system.mem_ctrls.dram.perBankWrBursts::5            0                       # Per bank write bursts
system.mem_ctrls.dram.perBankWrBursts::6            3                       # Per bank write bursts
system.mem_ctrls.dram.perBankWrBursts::7            6                       # Per bank write bursts
system.mem_ctrls.dram.perBankWrBursts::8            9                       # Per bank write bursts
system.mem_ctrls.dram.perBankWrBursts::9            0                       # Per bank write bursts
system.mem_ctrls.dram.perBankWrBursts::10            0                       # Per bank write bursts
system.mem_ctrls.dram.perBankWrBursts::11            7                       # Per bank write bursts
system.mem_ctrls.dram.perBankWrBursts::12            0                       # Per bank write bursts
system.mem_ctrls.dram.perBankWrBursts::13            0                       # Per bank write bursts
system.mem_ctrls.dram.perBankWrBursts::14            0                       # Per bank write bursts
system.mem_ctrls.dram.perBankWrBursts::15            0                       # Per bank write bursts
system.mem_ctrls.dram.totQLat                 3972250                       # Total ticks spent queuing
system.mem_ctrls.dram.totBusLat               2600000                       # Total ticks spent in databus transfers
system.mem_ctrls.dram.totMemAccLat           13722250                       # Total ticks spent from burst creation until serviced by the DRAM
system.mem_ctrls.dram.avgQLat                 7638.94                       # Average queueing delay per DRAM burst
system.mem_ctrls.dram.avgBusLat               5000.00                       # Average bus latency per DRAM burst
system.mem_ctrls.dram.avgMemAccLat           26388.94                       # Average memory access latency per DRAM burst
system.mem_ctrls.dram.readRowHits                 397                       # Number of row buffer hits during reads
system.mem_ctrls.dram.writeRowHits                 26                       # Number of row buffer hits during writes
system.mem_ctrls.dram.readRowHitRate            76.35                       # Row buffer hit rate for reads
system.mem_ctrls.dram.writeRowHitRate           76.47                       # Row buffer hit rate for writes
system.mem_ctrls.dram.bytesPerActivate::samples          125                       # Bytes accessed per row activation
system.mem_ctrls.dram.bytesPerActivate::mean   274.432000                       # Bytes accessed per row activation
system.mem_ctrls.dram.bytesPerActivate::gmean   176.300024                       # Bytes accessed per row activation
system.mem_ctrls.dram.bytesPerActivate::stdev   277.642098                       # Bytes accessed per row activation
system.mem_ctrls.dram.bytesPerActivate::0-127           42     33.60%     33.60% # Bytes accessed per row activation
system.mem_ctrls.dram.bytesPerActivate::128-255           37     29.60%     63.20% # Bytes accessed per row activation
system.mem_ctrls.dram.bytesPerActivate::256-383           13     10.40%     73.60% # Bytes accessed per row activation
system.mem_ctrls.dram.bytesPerActivate::384-511           10      8.00%     81.60% # Bytes accessed per row activation
system.mem_ctrls.dram.bytesPerActivate::512-639            6      4.80%     86.40% # Bytes accessed per row activation
system.mem_ctrls.dram.bytesPerActivate::640-767            5      4.00%     90.40% # Bytes accessed per row activation
system.mem_ctrls.dram.bytesPerActivate::768-895            2      1.60%     92.00% # Bytes accessed per row activation
system.mem_ctrls.dram.bytesPerActivate::896-1023            4      3.20%     95.20% # Bytes accessed per row activation
system.mem_ctrls.dram.bytesPerActivate::1024-1151            6      4.80%    100.00% # Bytes accessed per row activation
system.mem_ctrls.dram.bytesPerActivate::total          125                       # Bytes accessed per row activation
system.mem_ctrls.dram.bytesRead                 33280                       # Total number of bytes read from DRAM
system.mem_ctrls.dram.bytesWritten               2176                       # Total number of bytes written to DRAM
system.mem_ctrls.dram.avgRdBW              457.557676                       # Average DRAM read bandwidth in MiBytes/s
system.mem_ctrls.dram.avgWrBW               29.917233                       # Average DRAM write bandwidth in MiBytes/s
system.mem_ctrls.dram.peakBW                 12800.00                       # Theoretical peak bandwidth in MiByte/s
system.mem_ctrls.dram.busUtil                    3.81                       # Data bus utilization in percentage
system.mem_ctrls.dram.busUtilRead                3.57                       # Data bus utilization in percentage for reads
system.mem_ctrls.dram.busUtilWrite               0.23                       # Data bus utilization in percentage for writes
system.mem_ctrls.dram.pageHitRate               76.35                       # Row buffer hit rate, read and write combined
system.mem_ctrls.dram.power_state.pwrStateResidencyTicks::UNDEFINED     72734000                       # Cumulative time (in ticks) in various power states
system.mem_ctrls.dram.rank0.actEnergy          392700                       # Energy for activate commands per rank (pJ)
system.mem_ctrls.dram.rank0.preEnergy          197340                       # Energy for precharge commands per rank (pJ)
system.mem_ctrls.dram.rank0.readEnergy        1749300                       # Energy for read commands per rank (pJ)
system.mem_ctrls.dram.rank0.writeEnergy         93960                       # Energy for write commands per rank (pJ)
system.mem_ctrls.dram.rank0.refreshEnergy 5531760.000000                       # Energy for refresh commands per rank (pJ)
system.mem_ctrls.dram.rank0.actBackEnergy     31741590                       # Energy for active background per rank (pJ)
system.mem_ctrls.dram.rank0.preBackEnergy      1200480                       # Energy for precharge background per rank (pJ)
system.mem_ctrls.dram.rank0.actPowerDownEnergy            0                       # Energy for active power-down per rank (pJ)
system.mem_ctrls.dram.rank0.prePowerDownEnergy            0                       # Energy for precharge power-down per rank (pJ)
system.mem_ctrls.dram.rank0.selfRefreshEnergy            0                       # Energy for self refresh per rank (pJ)
system.mem_ctrls.dram.rank0.totalEnergy      40907130                       # Total energy per rank (pJ)
system.mem_ctrls.dram.rank0.averagePower   562.421014                       # Core power per rank (mW)
system.mem_ctrls.dram.rank0.totalIdleTime            0                       # Total Idle time Per DRAM Rank
system.mem_ctrls.dram.rank0.pwrStateTime::IDLE      2849250                       # Time in different power states
system.mem_ctrls.dram.rank0.pwrStateTime::REF      2340000                       # Time in different power states
system.mem_ctrls.dram.rank0.pwrStateTime::SREF            0                       # Time in different power states
system.mem_ctrls.dram.rank0.pwrStateTime::PRE_PDN            0                       # Time in different power states
system.mem_ctrls.dram.rank0.pwrStateTime::ACT     67544750                       # Time in different power states
system.mem_ctrls.dram.rank0.pwrStateTime::ACT_PDN            0                       # Time in different power states
system.mem_ctrls.dram.rank1.actEnergy          542640                       # Energy for activate commands per rank (pJ)
system.mem_ctrls.dram.rank1.preEnergy          277035                       # Energy for precharge commands per rank (pJ)
system.mem_ctrls.dram.rank1.readEnergy        1963500                       # Energy for read commands per rank (pJ)
system.mem_ctrls.dram.rank1.writeEnergy         83520                       # Energy for write commands per rank (pJ)
system.mem_ctrls.dram.rank1.refreshEnergy 5531760.000000                       # Energy for refresh commands per rank (pJ)
system.mem_ctrls.dram.rank1.actBackEnergy     31532400                       # Energy for active background per rank (pJ)
system.mem_ctrls.dram.rank1.preBackEnergy      1376640                       # Energy for precharge background per rank (pJ)
system.mem_ctrls.dram.rank1.actPowerDownEnergy            0                       # Energy for active power-down per rank (pJ)
system.mem_ctrls.dram.rank1.prePowerDownEnergy            0                       # Energy for precharge power-down per rank (pJ)
system.mem_ctrls.dram.rank1.selfRefreshEnergy            0                       # Energy for self refresh per rank (pJ)
system.mem_ctrls.dram.rank1.totalEnergy      41307495                       # Total energy per rank (pJ)
system.mem_ctrls.dram.rank1.averagePower   567.925523                       # Core power per rank (mW)
system.mem_ctrls.dram.rank1.totalIdleTime            0                       # Total Idle time Per DRAM Rank
system.mem_ctrls.dram.rank1.pwrStateTime::IDLE      3321750                       # Time in different power states
system.mem_ctrls.dram.rank1.pwrStateTime::REF      2340000                       # Time in different power states
system.mem_ctrls.dram.rank1.pwrStateTime::SREF            0                       # Time in different power states
system.mem_ctrls.dram.rank1.pwrStateTime::PRE_PDN            0                       # Time in different power states
system.mem_ctrls.dram.rank1.pwrStateTime::ACT     67072250                       # Time in different power states
system.mem_ctrls.dram.rank1.pwrStateTime::ACT_PDN            0                       # Time in different power states
system.mem_ctrls.power_state.pwrStateResidencyTicks::UNDEFINED     72734000                       # Cumulative time (in ticks) in various power states
system.membus.trans_dist::ReadResp                453                       # Transaction distribution
system.membus.trans_dist::WritebackClean           52                       # Transaction distribution
system.membus.trans_dist::ReadExReq                74                       # Transaction distribution
system.membus.trans_dist::ReadExResp               74                       # Transaction distribution
system.membus.trans_dist::ReadCleanReq            345                       # Transaction distribution
system.membus.trans_dist::ReadSharedReq           108                       # Transaction distribution
system.membus.pkt_count_system.cpu.icache.mem_side_port::system.mem_ctrls.port          742                       # Packet count per connected requestor and responder (bytes)
system.membus.pkt_count_system.cpu.dcache.mem_side_port::system.mem_ctrls.port          364                       # Packet count per connected requestor and responder (bytes)
system.membus.pkt_count::total                   1106                       # Packet count per connected requestor and responder (bytes)
system.membus.pkt_size_system.cpu.icache.mem_side_port::system.mem_ctrls.port        25408                       # Cumulative packet size per connected requestor and responder (bytes)
system.membus.pkt_size_system.cpu.dcache.mem_side_port::system.mem_ctrls.port        11648                       # Cumulative packet size per connected requestor and responder (bytes)
system.membus.pkt_size::total                   37056                       # Cumulative packet size per connected requestor and responder (bytes)
system.membus.snoops                                0                       # Total snoops (count)
system.membus.snoopTraffic                          0                       # Total snoop traffic (bytes)
system.membus.snoop_fanout::samples               527                       # Request fanout histogram
system.membus.snoop_fanout::mean             0.028463                       # Request fanout histogram
system.membus.snoop_fanout::stdev            0.166449                       # Request fanout histogram
system.membus.snoop_fanout::underflows              0      0.00%      0.00% # Request fanout histogram
system.membus.snoop_fanout::0                     512     97.15%     97.15% # Request fanout histogram
system.membus.snoop_fanout::1                      15      2.85%    100.00% # Request fanout histogram
system.membus.snoop_fanout::2                       0      0.00%    100.00% # Request fanout histogram
system.membus.snoop_fanout::overflows               0      0.00%    100.00% # Request fanout histogram
system.membus.snoop_fanout::min_value               0                       # Request fanout histogram
system.membus.snoop_fanout::max_value               1                       # Request fanout histogram
system.membus.snoop_fanout::total                 527                       # Request fanout histogram
system.membus.power_state.pwrStateResidencyTicks::UNDEFINED     72734000                       # Cumulative time (in ticks) in various power states
system.membus.reqLayer0.occupancy             1592000                       # Layer occupancy (ticks)
system.membus.reqLayer0.utilization               2.2                       # Layer utilization (%)
system.membus.respLayer1.occupancy            3893250                       # Layer occupancy (ticks)
system.membus.respLayer1.utilization              5.4                       # Layer utilization (%)
system.membus.respLayer2.occupancy            2057000                       # Layer occupancy (ticks)
system.membus.respLayer2.utilization              2.8                       # Layer utilization (%)
system.voltage_domain.voltage                       1                       # Voltage in Volts

---------- End Simulation Statistics   ----------
