
---------- Begin Simulation Statistics ----------
final_tick                                   48563000                       # Number of ticks from beginning of simulation (restored from checkpoints and never reset)
host_inst_rate                                 202403                       # Simulator instruction rate (inst/s)
host_mem_usage                                 653980                       # Number of bytes of host memory used
host_op_rate                                   234446                       # Simulator op (including micro ops) rate (op/s)
host_seconds                                     0.06                       # Real time elapsed on the host
host_tick_rate                              850756814                       # Simulator tick rate (ticks/s)
sim_freq                                 1000000000000                       # Frequency of simulated ticks
sim_insts                                       11539                       # Number of instructions simulated
sim_ops                                         13380                       # Number of ops (including micro ops) simulated
sim_seconds                                  0.000049                       # Number of seconds simulated
sim_ticks                                    48563000                       # Number of ticks simulated
system.cpu.committedInsts                       11539                       # Number of instructions committed
system.cpu.committedOps                         13380                       # Number of ops (including micro ops) committed
system.cpu.cpi                               4.208597                       # CPI: cycles per instruction
system.cpu.discardedOps                          2166                       # Number of ops (including micro ops) which were discarded before commit
system.cpu.idleCycles                           27149                       # Total number of cycles that the object has spent stopped
system.cpu.ipc                               0.237609                       # IPC: instructions per cycle
system.cpu.numCycles                            48563                       # number of cpu cycles simulated
system.cpu.numFetchSuspends                         0                       # Number of times Execute suspended instruction fetching
system.cpu.numWorkItemsCompleted                    0                       # number of work items this cpu completed
system.cpu.numWorkItemsStarted                      0                       # number of work items this cpu started
system.cpu.op_class_0::No_OpClass                   0      0.00%      0.00% # Class of committed instruction
system.cpu.op_class_0::IntAlu                    9235     69.02%     69.02% # Class of committed instruction
system.cpu.op_class_0::IntMult                     67      0.50%     69.52% # Class of committed instruction
system.cpu.op_class_0::IntDiv                       0      0.00%     69.52% # Class of committed instruction
system.cpu.op_class_0::FloatAdd                     0      0.00%     69.52% # Class of committed instruction
system.cpu.op_class_0::FloatCmp                     0      0.00%     69.52% # Class of committed instruction
system.cpu.op_class_0::FloatCvt                     0      0.00%     69.52% # Class of committed instruction
system.cpu.op_class_0::FloatMult                    0      0.00%     69.52% # Class of committed instruction
system.cpu.op_class_0::FloatMultAcc                 0      0.00%     69.52% # Class of committed instruction
system.cpu.op_class_0::FloatDiv                     0      0.00%     69.52% # Class of committed instruction
system.cpu.op_class_0::FloatMisc                    0      0.00%     69.52% # Class of committed instruction
system.cpu.op_class_0::FloatSqrt                    0      0.00%     69.52% # Class of committed instruction
system.cpu.op_class_0::SimdAdd                      0      0.00%     69.52% # Class of committed instruction
system.cpu.op_class_0::SimdAddAcc                   0      0.00%     69.52% # Class of committed instruction
system.cpu.op_class_0::SimdAlu                      0      0.00%     69.52% # Class of committed instruction
system.cpu.op_class_0::SimdCmp                      0      0.00%     69.52% # Class of committed instruction
system.cpu.op_class_0::SimdCvt                      0      0.00%     69.52% # Class of committed instruction
system.cpu.op_class_0::SimdMisc                     0      0.00%     69.52% # Class of committed instruction
system.cpu.op_class_0::SimdMult                     0      0.00%     69.52% # Class of committed instruction
system.cpu.op_class_0::SimdMultAcc                  0      0.00%     69.52% # Class of committed instruction
system.cpu.op_class_0::SimdShift                    0      0.00%     69.52% # Class of committed instruction
system.cpu.op_class_0::SimdShiftAcc                 0      0.00%     69.52% # Class of committed instruction
system.cpu.op_class_0::SimdDiv                      0      0.00%     69.52% # Class of committed instruction
system.cpu.op_class_0::SimdSqrt                     0      0.00%     69.52% # Class of committed instruction
system.cpu.op_class_0::SimdFloatAdd                 0      0.00%     69.52% # Class of committed instruction
system.cpu.op_class_0::SimdFloatAlu                 0      0.00%     69.52% # Class of committed instruction
system.cpu.op_class_0::SimdFloatCmp                 3      0.02%     69.54% # Class of committed instruction
system.cpu.op_class_0::SimdFloatCvt                 1      0.01%     69.55% # Class of committed instruction
system.cpu.op_class_0::SimdFloatDiv                 0      0.00%     69.55% # Class of committed instruction
system.cpu.op_class_0::SimdFloatMisc               29      0.22%     69.77% # Class of committed instruction
system.cpu.op_class_0::SimdFloatMult                0      0.00%     69.77% # Class of committed instruction
system.cpu.op_class_0::SimdFloatMultAcc             0      0.00%     69.77% # Class of committed instruction
system.cpu.op_class_0::SimdFloatSqrt                0      0.00%     69.77% # Class of committed instruction
system.cpu.op_class_0::SimdReduceAdd                0      0.00%     69.77% # Class of committed instruction
system.cpu.op_class_0::SimdReduceAlu                0      0.00%     69.77% # Class of committed instruction
system.cpu.op_class_0::SimdReduceCmp                0      0.00%     69.77% # Class of committed instruction
system.cpu.op_class_0::SimdFloatReduceAdd            0      0.00%     69.77% # Class of committed instruction
system.cpu.op_class_0::SimdFloatReduceCmp            0      0.00%     69.77% # Class of committed instruction
system.cpu.op_class_0::SimdAes                      0      0.00%     69.77% # Class of committed instruction
system.cpu.op_class_0::SimdAesMix                   0      0.00%     69.77% # Class of committed instruction
system.cpu.op_class_0::SimdSha1Hash                 0      0.00%     69.77% # Class of committed instruction
system.cpu.op_class_0::SimdSha1Hash2                0      0.00%     69.77% # Class of committed instruction
system.cpu.op_class_0::SimdSha256Hash               0      0.00%     69.77% # Class of committed instruction
system.cpu.op_class_0::SimdSha256Hash2              0      0.00%     69.77% # Class of committed instruction
system.cpu.op_class_0::SimdShaSigma2                0      0.00%     69.77% # Class of committed instruction
system.cpu.op_class_0::SimdShaSigma3                0      0.00%     69.77% # Class of committed instruction
system.cpu.op_class_0::SimdPredAlu                  0      0.00%     69.77% # Class of committed instruction
system.cpu.op_class_0::MemRead                   2012     15.04%     84.81% # Class of committed instruction
system.cpu.op_class_0::MemWrite                  2033     15.19%    100.00% # Class of committed instruction
system.cpu.op_class_0::FloatMemRead                 0      0.00%    100.00% # Class of committed instruction
system.cpu.op_class_0::FloatMemWrite                0      0.00%    100.00% # Class of committed instruction
system.cpu.op_class_0::IprAccess                    0      0.00%    100.00% # Class of committed instruction
system.cpu.op_class_0::InstPrefetch                 0      0.00%    100.00% # Class of committed instruction
system.cpu.op_class_0::total                    13380                       # Class of committed instruction
system.cpu.tickCycles                           21414                       # Number of cycles that the object actually ticked
system.cpu.workload.numSyscalls                    13                       # Number of system calls
system.membus.snoop_filter.hit_multi_requests           10                       # Number of requests hitting in the snoop filter with multiple (>1) holders of the requested data.
system.membus.snoop_filter.hit_multi_snoops            0                       # Number of snoops hitting in the snoop filter with multiple (>1) holders of the requested data.
system.membus.snoop_filter.hit_single_requests          162                       # Number of requests hitting in the snoop filter with a single holder of the requested data.
system.membus.snoop_filter.hit_single_snoops            0                       # Number of snoops hitting in the snoop filter with a single holder of the requested data.
system.membus.snoop_filter.tot_requests           841                       # Total number of requests made to the snoop filter.
system.membus.snoop_filter.tot_snoops               0                       # Total number of snoops made to the snoop filter.
system.clk_domain.clock                          1000                       # Clock period in ticks
system.cpu.branchPred.lookups                    3955                       # Number of BP lookups
system.cpu.branchPred.condPredicted              2609                       # Number of conditional branches predicted
system.cpu.branchPred.condIncorrect               658                       # Number of conditional branches incorrect
system.cpu.branchPred.BTBLookups                 1820                       # Number of BTB lookups
system.cpu.branchPred.BTBHits                     782                       # Number of BTB hits
system.cpu.branchPred.BTBHitPct             42.967033                       # BTB Hit Percentage
system.cpu.branchPred.RASUsed                     351                       # Number of times the RAS was used to get a target.
system.cpu.branchPred.RASIncorrect                  2                       # Number of incorrect RAS predictions.
system.cpu.branchPred.indirectLookups             187                       # Number of indirect predictor lookups.
system.cpu.branchPred.indirectHits                 43                       # Number of indirect target hits.
system.cpu.branchPred.indirectMisses              144                       # Number of indirect misses.
system.cpu.branchPred.indirectMispredicted           73                       # Number of mispredicted indirect branches.
system.cpu.dcache.demand_hits::.cpu.data         4012                       # number of demand (read+write) hits
system.cpu.dcache.demand_hits::total             4012                       # number of demand (read+write) hits
system.cpu.dcache.overall_hits::.cpu.data         4036                       # number of overall hits
system.cpu.dcache.overall_hits::total            4036                       # number of overall hits
system.cpu.dcache.demand_misses::.cpu.data          243                       # number of demand (read+write) misses
system.cpu.dcache.demand_misses::total            243                       # number of demand (read+write) misses
system.cpu.dcache.overall_misses::.cpu.data          255                       # number of overall misses
system.cpu.dcache.overall_misses::total           255                       # number of overall misses
system.cpu.dcache.demand_miss_latency::.cpu.data     14626000                       # number of demand (read+write) miss cycles
system.cpu.dcache.demand_miss_latency::total     14626000                       # number of demand (read+write) miss cycles
system.cpu.dcache.overall_miss_latency::.cpu.data     14626000                       # number of overall miss cycles
system.cpu.dcache.overall_miss_latency::total     14626000                       # number of overall miss cycles
system.cpu.dcache.demand_accesses::.cpu.data         4255                       # number of demand (read+write) accesses
system.cpu.dcache.demand_accesses::total         4255                       # number of demand (read+write) accesses
system.cpu.dcache.overall_accesses::.cpu.data         4291                       # number of overall (read+write) accesses
system.cpu.dcache.overall_accesses::total         4291                       # number of overall (read+write) accesses
system.cpu.dcache.demand_miss_rate::.cpu.data     0.057109                       # miss rate for demand accesses
system.cpu.dcache.demand_miss_rate::total     0.057109                       # miss rate for demand accesses
system.cpu.dcache.overall_miss_rate::.cpu.data     0.059427                       # miss rate for overall accesses
system.cpu.dcache.overall_miss_rate::total     0.059427                       # miss rate for overall accesses
system.cpu.dcache.demand_avg_miss_latency::.cpu.data 60189.300412                       # average overall miss latency
system.cpu.dcache.demand_avg_miss_latency::total 60189.300412                       # average overall miss latency
system.cpu.dcache.overall_avg_miss_latency::.cpu.data 57356.862745                       # average overall miss latency
system.cpu.dcache.overall_avg_miss_latency::total 57356.862745                       # average overall miss latency
system.cpu.dcache.blocked_cycles::no_mshrs            0                       # number of cycles access was blocked
system.cpu.dcache.blocked_cycles::no_targets            0                       # number of cycles access was blocked
system.cpu.dcache.blocked::no_mshrs                 0                       # number of cycles access was blocked
system.cpu.dcache.blocked::no_targets               0                       # number of cycles access was blocked
system.cpu.dcache.avg_blocked_cycles::no_mshrs          nan                       # average number of cycles each access was blocked
system.cpu.dcache.avg_blocked_cycles::no_targets          nan                       # average number of cycles each access was blocked
system.cpu.dcache.demand_mshr_hits::.cpu.data           60                       # number of demand (read+write) MSHR hits
system.cpu.dcache.demand_mshr_hits::total           60                       # number of demand (read+write) MSHR hits
system.cpu.dcache.overall_mshr_hits::.cpu.data           60                       # number of overall MSHR hits
system.cpu.dcache.overall_mshr_hits::total           60                       # number of overall MSHR hits
system.cpu.dcache.demand_mshr_misses::.cpu.data          183                       # number of demand (read+write) MSHR misses
system.cpu.dcache.demand_mshr_misses::total          183                       # number of demand (read+write) MSHR misses
system.cpu.dcache.overall_mshr_misses::.cpu.data          193                       # number of overall MSHR misses
system.cpu.dcache.overall_mshr_misses::total          193                       # number of overall MSHR misses
system.cpu.dcache.demand_mshr_miss_latency::.cpu.data     10791000                       # number of demand (read+write) MSHR miss cycles
system.cpu.dcache.demand_mshr_miss_latency::total     10791000                       # number of demand (read+write) MSHR miss cycles
system.cpu.dcache.overall_mshr_miss_latency::.cpu.data     11368000                       # number of overall MSHR miss cycles
system.cpu.dcache.overall_mshr_miss_latency::total     11368000                       # number of overall MSHR miss cycles
system.cpu.dcache.demand_mshr_miss_rate::.cpu.data     0.043008                       # mshr miss rate for demand accesses
system.cpu.dcache.demand_mshr_miss_rate::total     0.043008                       # mshr miss rate for demand accesses
system.cpu.dcache.overall_mshr_miss_rate::.cpu.data     0.044978                       # mshr miss rate for overall accesses
system.cpu.dcache.overall_mshr_miss_rate::total     0.044978                       # mshr miss rate for overall accesses
system.cpu.dcache.demand_avg_mshr_miss_latency::.cpu.data 58967.213115                       # average overall mshr miss latency
system.cpu.dcache.demand_avg_mshr_miss_latency::total 58967.213115                       # average overall mshr miss latency
system.cpu.dcache.overall_avg_mshr_miss_latency::.cpu.data 58901.554404                       # average overall mshr miss latency
system.cpu.dcache.overall_avg_mshr_miss_latency::total 58901.554404                       # average overall mshr miss latency
system.cpu.dcache.replacements                      0                       # number of replacements
system.cpu.dcache.ReadReq_hits::.cpu.data         2182                       # number of ReadReq hits
system.cpu.dcache.ReadReq_hits::total            2182                       # number of ReadReq hits
system.cpu.dcache.ReadReq_misses::.cpu.data          120                       # number of ReadReq misses
system.cpu.dcache.ReadReq_misses::total           120                       # number of ReadReq misses
system.cpu.dcache.ReadReq_miss_latency::.cpu.data      7964000                       # number of ReadReq miss cycles
system.cpu.dcache.ReadReq_miss_latency::total      7964000                       # number of ReadReq miss cycles
system.cpu.dcache.ReadReq_accesses::.cpu.data         2302                       # number of ReadReq accesses(hits+misses)
system.cpu.dcache.ReadReq_accesses::total         2302                       # number of ReadReq accesses(hits+misses)
system.cpu.dcache.ReadReq_miss_rate::.cpu.data     0.052129                       # miss rate for ReadReq accesses
system.cpu.dcache.ReadReq_miss_rate::total     0.052129                       # miss rate for ReadReq accesses
system.cpu.dcache.ReadReq_avg_miss_latency::.cpu.data 66366.666667                       # average ReadReq miss latency
system.cpu.dcache.ReadReq_avg_miss_latency::total 66366.666667                       # average ReadReq miss latency
system.cpu.dcache.ReadReq_mshr_hits::.cpu.data           11                       # number of ReadReq MSHR hits
system.cpu.dcache.ReadReq_mshr_hits::total           11                       # number of ReadReq MSHR hits
system.cpu.dcache.ReadReq_mshr_misses::.cpu.data          109                       # number of ReadReq MSHR misses
system.cpu.dcache.ReadReq_mshr_misses::total          109                       # number of ReadReq MSHR misses
system.cpu.dcache.ReadReq_mshr_miss_latency::.cpu.data      6774000                       # number of ReadReq MSHR miss cycles
system.cpu.dcache.ReadReq_mshr_miss_latency::total      6774000                       # number of ReadReq MSHR miss cycles
system.cpu.dcache.ReadReq_mshr_miss_rate::.cpu.data     0.047350                       # mshr miss rate for ReadReq accesses
system.cpu.dcache.ReadReq_mshr_miss_rate::total     0.047350                       # mshr miss rate for ReadReq accesses
system.cpu.dcache.ReadReq_avg_mshr_miss_latency::.cpu.data 62146.788991                       # average ReadReq mshr miss latency
system.cpu.dcache.ReadReq_avg_mshr_miss_latency::total 62146.788991                       # average ReadReq mshr miss latency
system.cpu.dcache.WriteReq_hits::.cpu.data         1830                       # number of WriteReq hits
system.cpu.dcache.WriteReq_hits::total           1830                       # number of WriteReq hits
system.cpu.dcache.WriteReq_misses::.cpu.data          123                       # number of WriteReq misses
system.cpu.dcache.WriteReq_misses::total          123                       # number of WriteReq misses
system.cpu.dcache.WriteReq_miss_latency::.cpu.data      6662000                       # number of WriteReq miss cycles
system.cpu.dcache.WriteReq_miss_latency::total      6662000                       # number of WriteReq miss cycles
system.cpu.dcache.WriteReq_accesses::.cpu.data         1953                       # number of WriteReq accesses(hits+misses)
system.cpu.dcache.WriteReq_accesses::total         1953                       # number of WriteReq accesses(hits+misses)
system.cpu.dcache.WriteReq_miss_rate::.cpu.data     0.062980                       # miss rate for WriteReq accesses
system.cpu.dcache.WriteReq_miss_rate::total     0.062980                       # miss rate for WriteReq accesses
system.cpu.dcache.WriteReq_avg_miss_latency::.cpu.data 54162.601626                       # average WriteReq miss latency
system.cpu.dcache.WriteReq_avg_miss_latency::total 54162.601626                       # average WriteReq miss latency
system.cpu.dcache.WriteReq_mshr_hits::.cpu.data           49                       # number of WriteReq MSHR hits
system.cpu.dcache.WriteReq_mshr_hits::total           49                       # number of WriteReq MSHR hits
system.cpu.dcache.WriteReq_mshr_misses::.cpu.data           74                       # number of WriteReq MSHR misses
system.cpu.dcache.WriteReq_mshr_misses::total           74                       # number of WriteReq MSHR misses
system.cpu.dcache.WriteReq_mshr_miss_latency::.cpu.data      4017000                       # number of WriteReq MSHR miss cycles
system.cpu.dcache.WriteReq_mshr_miss_latency::total      4017000                       # number of WriteReq MSHR miss cycles
system.cpu.dcache.WriteReq_mshr_miss_rate::.cpu.data     0.037890                       # mshr miss rate for WriteReq accesses
system.cpu.dcache.WriteReq_mshr_miss_rate::total     0.037890                       # mshr miss rate for WriteReq accesses
system.cpu.dcache.WriteReq_avg_mshr_miss_latency::.cpu.data 54283.783784                       # average WriteReq mshr miss latency
system.cpu.dcache.WriteReq_avg_mshr_miss_latency::total 54283.783784                       # average WriteReq mshr miss latency
system.cpu.dcache.SoftPFReq_hits::.cpu.data           24                       # number of SoftPFReq hits
system.cpu.dcache.SoftPFReq_hits::total            24                       # number of SoftPFReq hits
system.cpu.dcache.SoftPFReq_misses::.cpu.data           12                       # number of SoftPFReq misses
system.cpu.dcache.SoftPFReq_misses::total           12                       # number of SoftPFReq misses
system.cpu.dcache.SoftPFReq_accesses::.cpu.data           36                       # number of SoftPFReq accesses(hits+misses)
system.cpu.dcache.SoftPFReq_accesses::total           36                       # number of SoftPFReq accesses(hits+misses)
system.cpu.dcache.SoftPFReq_miss_rate::.cpu.data     0.333333                       # miss rate for SoftPFReq accesses
system.cpu.dcache.SoftPFReq_miss_rate::total     0.333333                       # miss rate for SoftPFReq accesses
system.cpu.dcache.SoftPFReq_mshr_misses::.cpu.data           10                       # number of SoftPFReq MSHR misses
system.cpu.dcache.SoftPFReq_mshr_misses::total           10                       # number of SoftPFReq MSHR misses
system.cpu.dcache.SoftPFReq_mshr_miss_latency::.cpu.data       577000                       # number of SoftPFReq MSHR miss cycles
system.cpu.dcache.SoftPFReq_mshr_miss_latency::total       577000                       # number of SoftPFReq MSHR miss cycles
system.cpu.dcache.SoftPFReq_mshr_miss_rate::.cpu.data     0.277778                       # mshr miss rate for SoftPFReq accesses
system.cpu.dcache.SoftPFReq_mshr_miss_rate::total     0.277778                       # mshr miss rate for SoftPFReq accesses
system.cpu.dcache.SoftPFReq_avg_mshr_miss_latency::.cpu.data        57700                       # average SoftPFReq mshr miss latency
system.cpu.dcache.SoftPFReq_avg_mshr_miss_latency::total        57700                       # average SoftPFReq mshr miss latency
system.cpu.dcache.LoadLockedReq_hits::.cpu.data           24                       # number of LoadLockedReq hits
system.cpu.dcache.LoadLockedReq_hits::total           24                       # number of LoadLockedReq hits
system.cpu.dcache.LoadLockedReq_accesses::.cpu.data           24                       # number of LoadLockedReq accesses(hits+misses)
system.cpu.dcache.LoadLockedReq_accesses::total           24                       # number of LoadLockedReq accesses(hits+misses)
system.cpu.dcache.StoreCondReq_hits::.cpu.data           24                       # number of StoreCondReq hits
system.cpu.dcache.StoreCondReq_hits::total           24                       # number of StoreCondReq hits
system.cpu.dcache.StoreCondReq_accesses::.cpu.data           24                       # number of StoreCondReq accesses(hits+misses)
system.cpu.dcache.StoreCondReq_accesses::total           24                       # number of StoreCondReq accesses(hits+misses)
system.cpu.dcache.power_state.pwrStateResidencyTicks::UNDEFINED     48563000                       # Cumulative time (in ticks) in various power states
system.cpu.dcache.tags.tagsinuse           116.073926                       # Cycle average of tags in use
system.cpu.dcache.tags.total_refs                4277                       # Total number of references to valid blocks.
system.cpu.dcache.tags.sampled_refs               193                       # Sample count of references to valid blocks.
system.cpu.dcache.tags.avg_refs             22.160622                       # Average number of references to valid blocks.
system.cpu.dcache.tags.warmup_cycle            148000                       # Cycle when the warmup percentage was hit.
system.cpu.dcache.tags.occ_blocks::.cpu.data   116.073926                       # Average occupied blocks per requestor
system.cpu.dcache.tags.occ_percent::.cpu.data     0.113353                       # Average percentage of cache occupancy
system.cpu.dcache.tags.occ_percent::total     0.113353                       # Average percentage of cache occupancy
system.cpu.dcache.tags.occ_task_id_blocks::1024          193                       # Occupied blocks per task id
system.cpu.dcache.tags.age_task_id_blocks_1024::0           18                       # Occupied blocks per task id
system.cpu.dcache.tags.age_task_id_blocks_1024::1          175                       # Occupied blocks per task id
system.cpu.dcache.tags.occ_task_id_percent::1024     0.188477                       # Percentage of cache occupancy per task id
system.cpu.dcache.tags.tag_accesses              8871                       # Number of tag accesses
system.cpu.dcache.tags.data_accesses             8871                       # Number of data accesses
system.cpu.dcache.tags.power_state.pwrStateResidencyTicks::UNDEFINED     48563000                       # Cumulative time (in ticks) in various power states
system.cpu.dtb.instHits                             0                       # ITB inst hits
system.cpu.dtb.instMisses                           0                       # ITB inst misses
system.cpu.dtb.readHits                             0                       # DTB read hits
system.cpu.dtb.readMisses                           0                       # DTB read misses
system.cpu.dtb.writeHits                            0                       # DTB write hits
system.cpu.dtb.writeMisses                          0                       # DTB write misses
system.cpu.dtb.inserts                              0                       # Number of times an entry is inserted into the TLB
system.cpu.dtb.flushTlb                             0                       # Number of times complete TLB was flushed
system.cpu.dtb.flushTlbMva                          0                       # Number of times TLB was flushed by MVA
system.cpu.dtb.flushTlbMvaAsid                      0                       # Number of times TLB was flushed by MVA & ASID
system.cpu.dtb.flushTlbAsid                         0                       # Number of times TLB was flushed by ASID
system.cpu.dtb.flushedEntries                       0                       # Number of entries that have been flushed from TLB
system.cpu.dtb.alignFaults                          0                       # Number of TLB faults due to alignment restrictions
system.cpu.dtb.prefetchFaults                       0                       # Number of TLB faults due to prefetch
system.cpu.dtb.domainFaults                         0                       # Number of TLB faults due to domain restrictions
system.cpu.dtb.permsFaults                          0                       # Number of TLB faults due to permissions restrictions
system.cpu.dtb.readAccesses                         0                       # DTB read accesses
system.cpu.dtb.writeAccesses                        0                       # DTB write accesses
system.cpu.dtb.instAccesses                         0                       # ITB inst accesses
system.cpu.dtb.hits                                 0                       # Total TLB (inst and data) hits
system.cpu.dtb.misses                               0                       # Total TLB (inst and data) misses
system.cpu.dtb.accesses                             0                       # Total TLB (inst and data) accesses
system.cpu.dtb.stage2_mmu.stage2_tlb.instHits            0                       # ITB inst hits
system.cpu.dtb.stage2_mmu.stage2_tlb.instMisses            0                       # ITB inst misses
system.cpu.dtb.stage2_mmu.stage2_tlb.readHits            0                       # DTB read hits
system.cpu.dtb.stage2_mmu.stage2_tlb.readMisses            0                       # DTB read misses
system.cpu.dtb.stage2_mmu.stage2_tlb.writeHits            0                       # DTB write hits
system.cpu.dtb.stage2_mmu.stage2_tlb.writeMisses            0                       # DTB write misses
system.cpu.dtb.stage2_mmu.stage2_tlb.inserts            0                       # Number of times an entry is inserted into the TLB
system.cpu.dtb.stage2_mmu.stage2_tlb.flushTlb            0                       # Number of times complete TLB was flushed
system.cpu.dtb.stage2_mmu.stage2_tlb.flushTlbMva            0                       # Number of times TLB was flushed by MVA
system.cpu.dtb.stage2_mmu.stage2_tlb.flushTlbMvaAsid            0                       # Number of times TLB was flushed by MVA & ASID
system.cpu.dtb.stage2_mmu.stage2_tlb.flushTlbAsid            0                       # Number of times TLB was flushed by ASID
system.cpu.dtb.stage2_mmu.stage2_tlb.flushedEntries            0                       # Number of entries that have been flushed from TLB
system.cpu.dtb.stage2_mmu.stage2_tlb.alignFaults            0                       # Number of TLB faults due to alignment restrictions
system.cpu.dtb.stage2_mmu.stage2_tlb.prefetchFaults            0                       # Number of TLB faults due to prefetch
system.cpu.dtb.stage2_mmu.stage2_tlb.domainFaults            0                       # Number of TLB faults due to domain restrictions
system.cpu.dtb.stage2_mmu.stage2_tlb.permsFaults            0                       # Number of TLB faults due to permissions restrictions
system.cpu.dtb.stage2_mmu.stage2_tlb.readAccesses            0                       # DTB read accesses
system.cpu.dtb.stage2_mmu.stage2_tlb.writeAccesses            0                       # DTB write accesses
system.cpu.dtb.stage2_mmu.stage2_tlb.instAccesses            0                       # ITB inst accesses
system.cpu.dtb.stage2_mmu.stage2_tlb.hits            0                       # Total TLB (inst and data) hits
system.cpu.dtb.stage2_mmu.stage2_tlb.misses            0                       # Total TLB (inst and data) misses
system.cpu.dtb.stage2_mmu.stage2_tlb.accesses            0                       # Total TLB (inst and data) accesses
system.cpu.dtb.stage2_mmu.stage2_tlb.walker.walks            0                       # Table walker walks requested
system.cpu.dtb.stage2_mmu.stage2_tlb.walker.requestOrigin_Requested::Data            0                       # Table walker requests started/completed, data/inst
system.cpu.dtb.stage2_mmu.stage2_tlb.walker.requestOrigin_Requested::Inst            0                       # Table walker requests started/completed, data/inst
system.cpu.dtb.stage2_mmu.stage2_tlb.walker.requestOrigin_Requested::total            0                       # Table walker requests started/completed, data/inst
system.cpu.dtb.stage2_mmu.stage2_tlb.walker.requestOrigin_Completed::Data            0                       # Table walker requests started/completed, data/inst
system.cpu.dtb.stage2_mmu.stage2_tlb.walker.requestOrigin_Completed::Inst            0                       # Table walker requests started/completed, data/inst
system.cpu.dtb.stage2_mmu.stage2_tlb.walker.requestOrigin_Completed::total            0                       # Table walker requests started/completed, data/inst
system.cpu.dtb.stage2_mmu.stage2_tlb.walker.requestOrigin::total            0                       # Table walker requests started/completed, data/inst
system.cpu.dtb.stage2_mmu.stage2_tlb.walker.power_state.pwrStateResidencyTicks::UNDEFINED     48563000                       # Cumulative time (in ticks) in various power states
system.cpu.dtb.walker.walks                         0                       # Table walker walks requested
system.cpu.dtb.walker.requestOrigin_Requested::Data            0                       # Table walker requests started/completed, data/inst
system.cpu.dtb.walker.requestOrigin_Requested::Inst            0                       # Table walker requests started/completed, data/inst
system.cpu.dtb.walker.requestOrigin_Requested::total            0                       # Table walker requests started/completed, data/inst
system.cpu.dtb.walker.requestOrigin_Completed::Data            0                       # Table walker requests started/completed, data/inst
system.cpu.dtb.walker.requestOrigin_Completed::Inst            0                       # Table walker requests started/completed, data/inst
system.cpu.dtb.walker.requestOrigin_Completed::total            0                       # Table walker requests started/completed, data/inst
system.cpu.dtb.walker.requestOrigin::total            0                       # Table walker requests started/completed, data/inst
system.cpu.dtb.walker.power_state.pwrStateResidencyTicks::UNDEFINED     48563000                       # Cumulative time (in ticks) in various power states
system.cpu.fetch2.intInstructions               11385                       # Number of integer instructions successfully decoded
system.cpu.fetch2.fpInstructions                    0                       # Number of floating point instructions successfully decoded
system.cpu.fetch2.vecInstructions                   0                       # Number of SIMD instructions successfully decoded
system.cpu.fetch2.loadInstructions               2678                       # Number of memory load instructions successfully decoded
system.cpu.fetch2.storeInstructions              1546                       # Number of memory store instructions successfully decoded
system.cpu.fetch2.amoInstructions                   0                       # Number of memory atomic instructions successfully decoded
system.cpu.icache.demand_hits::.cpu.inst         4000                       # number of demand (read+write) hits
system.cpu.icache.demand_hits::total             4000                       # number of demand (read+write) hits
system.cpu.icache.overall_hits::.cpu.inst         4000                       # number of overall hits
system.cpu.icache.overall_hits::total            4000                       # number of overall hits
system.cpu.icache.demand_misses::.cpu.inst          504                       # number of demand (read+write) misses
system.cpu.icache.demand_misses::total            504                       # number of demand (read+write) misses
system.cpu.icache.overall_misses::.cpu.inst          504                       # number of overall misses
system.cpu.icache.overall_misses::total           504                       # number of overall misses
system.cpu.icache.demand_miss_latency::.cpu.inst     28315000                       # number of demand (read+write) miss cycles
system.cpu.icache.demand_miss_latency::total     28315000                       # number of demand (read+write) miss cycles
system.cpu.icache.overall_miss_latency::.cpu.inst     28315000                       # number of overall miss cycles
system.cpu.icache.overall_miss_latency::total     28315000                       # number of overall miss cycles
system.cpu.icache.demand_accesses::.cpu.inst         4504                       # number of demand (read+write) accesses
system.cpu.icache.demand_accesses::total         4504                       # number of demand (read+write) accesses
system.cpu.icache.overall_accesses::.cpu.inst         4504                       # number of overall (read+write) accesses
system.cpu.icache.overall_accesses::total         4504                       # number of overall (read+write) accesses
system.cpu.icache.demand_miss_rate::.cpu.inst     0.111901                       # miss rate for demand accesses
system.cpu.icache.demand_miss_rate::total     0.111901                       # miss rate for demand accesses
system.cpu.icache.overall_miss_rate::.cpu.inst     0.111901                       # miss rate for overall accesses
system.cpu.icache.overall_miss_rate::total     0.111901                       # miss rate for overall accesses
system.cpu.icache.demand_avg_miss_latency::.cpu.inst 56180.555556                       # average overall miss latency
system.cpu.icache.demand_avg_miss_latency::total 56180.555556                       # average overall miss latency
system.cpu.icache.overall_avg_miss_latency::.cpu.inst 56180.555556                       # average overall miss latency
system.cpu.icache.overall_avg_miss_latency::total 56180.555556                       # average overall miss latency
system.cpu.icache.blocked_cycles::no_mshrs            0                       # number of cycles access was blocked
system.cpu.icache.blocked_cycles::no_targets            0                       # number of cycles access was blocked
system.cpu.icache.blocked::no_mshrs                 0                       # number of cycles access was blocked
system.cpu.icache.blocked::no_targets               0                       # number of cycles access was blocked
system.cpu.icache.avg_blocked_cycles::no_mshrs          nan                       # average number of cycles each access was blocked
system.cpu.icache.avg_blocked_cycles::no_targets          nan                       # average number of cycles each access was blocked
system.cpu.icache.writebacks::.writebacks          144                       # number of writebacks
system.cpu.icache.writebacks::total               144                       # number of writebacks
system.cpu.icache.demand_mshr_misses::.cpu.inst          504                       # number of demand (read+write) MSHR misses
system.cpu.icache.demand_mshr_misses::total          504                       # number of demand (read+write) MSHR misses
system.cpu.icache.overall_mshr_misses::.cpu.inst          504                       # number of overall MSHR misses
system.cpu.icache.overall_mshr_misses::total          504                       # number of overall MSHR misses
system.cpu.icache.demand_mshr_miss_latency::.cpu.inst     27307000                       # number of demand (read+write) MSHR miss cycles
system.cpu.icache.demand_mshr_miss_latency::total     27307000                       # number of demand (read+write) MSHR miss cycles
system.cpu.icache.overall_mshr_miss_latency::.cpu.inst     27307000                       # number of overall MSHR miss cycles
system.cpu.icache.overall_mshr_miss_latency::total     27307000                       # number of overall MSHR miss cycles
system.cpu.icache.demand_mshr_miss_rate::.cpu.inst     0.111901                       # mshr miss rate for demand accesses
system.cpu.icache.demand_mshr_miss_rate::total     0.111901                       # mshr miss rate for demand accesses
system.cpu.icache.overall_mshr_miss_rate::.cpu.inst     0.111901                       # mshr miss rate for overall accesses
system.cpu.icache.overall_mshr_miss_rate::total     0.111901                       # mshr miss rate for overall accesses
system.cpu.icache.demand_avg_mshr_miss_latency::.cpu.inst 54180.555556                       # average overall mshr miss latency
system.cpu.icache.demand_avg_mshr_miss_latency::total 54180.555556                       # average overall mshr miss latency
system.cpu.icache.overall_avg_mshr_miss_latency::.cpu.inst 54180.555556                       # average overall mshr miss latency
system.cpu.icache.overall_avg_mshr_miss_latency::total 54180.555556                       # average overall mshr miss latency
system.cpu.icache.replacements                    144                       # number of replacements
system.cpu.icache.ReadReq_hits::.cpu.inst         4000                       # number of ReadReq hits
system.cpu.icache.ReadReq_hits::total            4000                       # number of ReadReq hits
system.cpu.icache.ReadReq_misses::.cpu.inst          504                       # number of ReadReq misses
system.cpu.icache.ReadReq_misses::total           504                       # number of ReadReq misses
system.cpu.icache.ReadReq_miss_latency::.cpu.inst     28315000                       # number of ReadReq miss cycles
system.cpu.icache.ReadReq_miss_latency::total     28315000                       # number of ReadReq miss cycles
system.cpu.icache.ReadReq_accesses::.cpu.inst         4504                       # number of ReadReq accesses(hits+misses)
system.cpu.icache.ReadReq_accesses::total         4504                       # number of ReadReq accesses(hits+misses)
system.cpu.icache.ReadReq_miss_rate::.cpu.inst     0.111901                       # miss rate for ReadReq accesses
system.cpu.icache.ReadReq_miss_rate::total     0.111901                       # miss rate for ReadReq accesses
system.cpu.icache.ReadReq_avg_miss_latency::.cpu.inst 56180.555556                       # average ReadReq miss latency
system.cpu.icache.ReadReq_avg_miss_latency::total 56180.555556                       # average ReadReq miss latency
system.cpu.icache.ReadReq_mshr_misses::.cpu.inst          504                       # number of ReadReq MSHR misses
system.cpu.icache.ReadReq_mshr_misses::total          504                       # number of ReadReq MSHR misses
system.cpu.icache.ReadReq_mshr_miss_latency::.cpu.inst     27307000                       # number of ReadReq MSHR miss cycles
system.cpu.icache.ReadReq_mshr_miss_latency::total     27307000                       # number of ReadReq MSHR miss cycles
system.cpu.icache.ReadReq_mshr_miss_rate::.cpu.inst     0.111901                       # mshr miss rate for ReadReq accesses
system.cpu.icache.ReadReq_mshr_miss_rate::total     0.111901                       # mshr miss rate for ReadReq accesses
system.cpu.icache.ReadReq_avg_mshr_miss_latency::.cpu.inst 54180.555556                       # average ReadReq mshr miss latency
system.cpu.icache.ReadReq_avg_mshr_miss_latency::total 54180.555556                       # average ReadReq mshr miss latency
system.cpu.icache.power_state.pwrStateResidencyTicks::UNDEFINED     48563000                       # Cumulative time (in ticks) in various power states
system.cpu.icache.tags.tagsinuse           208.405806                       # Cycle average of tags in use
system.cpu.icache.tags.total_refs                4504                       # Total number of references to valid blocks.
system.cpu.icache.tags.sampled_refs               504                       # Sample count of references to valid blocks.
system.cpu.icache.tags.avg_refs              8.936508                       # Average number of references to valid blocks.
system.cpu.icache.tags.warmup_cycle             76000                       # Cycle when the warmup percentage was hit.
system.cpu.icache.tags.occ_blocks::.cpu.inst   208.405806                       # Average occupied blocks per requestor
system.cpu.icache.tags.occ_percent::.cpu.inst     0.407043                       # Average percentage of cache occupancy
system.cpu.icache.tags.occ_percent::total     0.407043                       # Average percentage of cache occupancy
system.cpu.icache.tags.occ_task_id_blocks::1024          360                       # Occupied blocks per task id
system.cpu.icache.tags.age_task_id_blocks_1024::0          105                       # Occupied blocks per task id
system.cpu.icache.tags.age_task_id_blocks_1024::1          255                       # Occupied blocks per task id
system.cpu.icache.tags.occ_task_id_percent::1024     0.703125                       # Percentage of cache occupancy per task id
system.cpu.icache.tags.tag_accesses              9512                       # Number of tag accesses
system.cpu.icache.tags.data_accesses             9512                       # Number of data accesses
system.cpu.icache.tags.power_state.pwrStateResidencyTicks::UNDEFINED     48563000                       # Cumulative time (in ticks) in various power states
system.cpu.itb.instHits                             0                       # ITB inst hits
system.cpu.itb.instMisses                           0                       # ITB inst misses
system.cpu.itb.readHits                             0                       # DTB read hits
system.cpu.itb.readMisses                           0                       # DTB read misses
system.cpu.itb.writeHits                            0                       # DTB write hits
system.cpu.itb.writeMisses                          0                       # DTB write misses
system.cpu.itb.inserts                              0                       # Number of times an entry is inserted into the TLB
system.cpu.itb.flushTlb                             0                       # Number of times complete TLB was flushed
system.cpu.itb.flushTlbMva                          0                       # Number of times TLB was flushed by MVA
system.cpu.itb.flushTlbMvaAsid                      0                       # Number of times TLB was flushed by MVA & ASID
system.cpu.itb.flushTlbAsid                         0                       # Number of times TLB was flushed by ASID
system.cpu.itb.flushedEntries                       0                       # Number of entries that have been flushed from TLB
system.cpu.itb.alignFaults                          0                       # Number of TLB faults due to alignment restrictions
system.cpu.itb.prefetchFaults                       0                       # Number of TLB faults due to prefetch
system.cpu.itb.domainFaults                         0                       # Number of TLB faults due to domain restrictions
system.cpu.itb.permsFaults                          0                       # Number of TLB faults due to permissions restrictions
system.cpu.itb.readAccesses                         0                       # DTB read accesses
system.cpu.itb.writeAccesses                        0                       # DTB write accesses
system.cpu.itb.instAccesses                         0                       # ITB inst accesses
system.cpu.itb.hits                                 0                       # Total TLB (inst and data) hits
system.cpu.itb.misses                               0                       # Total TLB (inst and data) misses
system.cpu.itb.accesses                             0                       # Total TLB (inst and data) accesses
system.cpu.itb.stage2_mmu.stage2_tlb.instHits            0                       # ITB inst hits
system.cpu.itb.stage2_mmu.stage2_tlb.instMisses            0                       # ITB inst misses
system.cpu.itb.stage2_mmu.stage2_tlb.readHits            0                       # DTB read hits
system.cpu.itb.stage2_mmu.stage2_tlb.readMisses            0                       # DTB read misses
system.cpu.itb.stage2_mmu.stage2_tlb.writeHits            0                       # DTB write hits
system.cpu.itb.stage2_mmu.stage2_tlb.writeMisses            0                       # DTB write misses
system.cpu.itb.stage2_mmu.stage2_tlb.inserts            0                       # Number of times an entry is inserted into the TLB
system.cpu.itb.stage2_mmu.stage2_tlb.flushTlb            0                       # Number of times complete TLB was flushed
system.cpu.itb.stage2_mmu.stage2_tlb.flushTlbMva            0                       # Number of times TLB was flushed by MVA
system.cpu.itb.stage2_mmu.stage2_tlb.flushTlbMvaAsid            0                       # Number of times TLB was flushed by MVA & ASID
system.cpu.itb.stage2_mmu.stage2_tlb.flushTlbAsid            0                       # Number of times TLB was flushed by ASID
system.cpu.itb.stage2_mmu.stage2_tlb.flushedEntries            0                       # Number of entries that have been flushed from TLB
system.cpu.itb.stage2_mmu.stage2_tlb.alignFaults            0                       # Number of TLB faults due to alignment restrictions
system.cpu.itb.stage2_mmu.stage2_tlb.prefetchFaults            0                       # Number of TLB faults due to prefetch
system.cpu.itb.stage2_mmu.stage2_tlb.domainFaults            0                       # Number of TLB faults due to domain restrictions
system.cpu.itb.stage2_mmu.stage2_tlb.permsFaults            0                       # Number of TLB faults due to permissions restrictions
system.cpu.itb.stage2_mmu.stage2_tlb.readAccesses            0                       # DTB read accesses
system.cpu.itb.stage2_mmu.stage2_tlb.writeAccesses            0                       # DTB write accesses
system.cpu.itb.stage2_mmu.stage2_tlb.instAccesses            0                       # ITB inst accesses
system.cpu.itb.stage2_mmu.stage2_tlb.hits            0                       # Total TLB (inst and data) hits
system.cpu.itb.stage2_mmu.stage2_tlb.misses            0                       # Total TLB (inst and data) misses
system.cpu.itb.stage2_mmu.stage2_tlb.accesses            0                       # Total TLB (inst and data) accesses
system.cpu.itb.stage2_mmu.stage2_tlb.walker.walks            0                       # Table walker walks requested
system.cpu.itb.stage2_mmu.stage2_tlb.walker.requestOrigin_Requested::Data            0                       # Table walker requests started/completed, data/inst
system.cpu.itb.stage2_mmu.stage2_tlb.walker.requestOrigin_Requested::Inst            0                       # Table walker requests started/completed, data/inst
system.cpu.itb.stage2_mmu.stage2_tlb.walker.requestOrigin_Requested::total            0                       # Table walker requests started/completed, data/inst
system.cpu.itb.stage2_mmu.stage2_tlb.walker.requestOrigin_Completed::Data            0                       # Table walker requests started/completed, data/inst
system.cpu.itb.stage2_mmu.stage2_tlb.walker.requestOrigin_Completed::Inst            0                       # Table walker requests started/completed, data/inst
system.cpu.itb.stage2_mmu.stage2_tlb.walker.requestOrigin_Completed::total            0                       # Table walker requests started/completed, data/inst
system.cpu.itb.stage2_mmu.stage2_tlb.walker.requestOrigin::total            0                       # Table walker requests started/completed, data/inst
system.cpu.itb.stage2_mmu.stage2_tlb.walker.power_state.pwrStateResidencyTicks::UNDEFINED     48563000                       # Cumulative time (in ticks) in various power states
system.cpu.itb.walker.walks                         0                       # Table walker walks requested
system.cpu.itb.walker.requestOrigin_Requested::Data            0                       # Table walker requests started/completed, data/inst
system.cpu.itb.walker.requestOrigin_Requested::Inst            0                       # Table walker requests started/completed, data/inst
system.cpu.itb.walker.requestOrigin_Requested::total            0                       # Table walker requests started/completed, data/inst
system.cpu.itb.walker.requestOrigin_Completed::Data            0                       # Table walker requests started/completed, data/inst
system.cpu.itb.walker.requestOrigin_Completed::Inst            0                       # Table walker requests started/completed, data/inst
system.cpu.itb.walker.requestOrigin_Completed::total            0                       # Table walker requests started/completed, data/inst
system.cpu.itb.walker.requestOrigin::total            0                       # Table walker requests started/completed, data/inst
system.cpu.itb.walker.power_state.pwrStateResidencyTicks::UNDEFINED     48563000                       # Cumulative time (in ticks) in various power states
system.cpu.power_state.pwrStateResidencyTicks::ON     48563000                       # Cumulative time (in ticks) in various power states
system.cpu.thread0.numInsts                     11539                       # Number of Instructions committed
system.cpu.thread0.numOps                       13380                       # Number of Ops committed
system.cpu.thread0.numMemRefs                       0                       # Number of Memory References
system.cpu_clk_domain.clock                      1000                       # Clock period in ticks
system.cpu_voltage_domain.voltage                   1                       # Voltage in Volts
system.mem_ctrls.avgPriority_.writebacks::samples       128.00                       # Average QoS priority value for accepted requests
system.mem_ctrls.avgPriority_.cpu.inst::samples       471.00                       # Average QoS priority value for accepted requests
system.mem_ctrls.avgPriority_.cpu.data::samples       191.00                       # Average QoS priority value for accepted requests
system.mem_ctrls.priorityMinLatency      0.000000017492                       # per QoS priority minimum request to response latency (s)
system.mem_ctrls.priorityMaxLatency      0.000043680792                       # per QoS priority maximum request to response latency (s)
system.mem_ctrls.numReadWriteTurnArounds            4                       # Number of turnarounds from READ to WRITE
system.mem_ctrls.numWriteReadTurnArounds            4                       # Number of turnarounds from WRITE to READ
system.mem_ctrls.numStayReadState                1462                       # Number of times bus staying in READ state
system.mem_ctrls.numStayWriteState                 64                       # Number of times bus staying in WRITE state
system.mem_ctrls.readReqs                         697                       # Number of read requests accepted
system.mem_ctrls.writeReqs                        134                       # Number of write requests accepted
system.mem_ctrls.readBursts                       697                       # Number of controller read bursts, including those serviced by the write queue
system.mem_ctrls.writeBursts                      134                       # Number of controller write bursts, including those merged in the write queue
system.mem_ctrls.servicedByWrQ                     35                       # Number of controller read bursts serviced by the write queue
system.mem_ctrls.mergedWrBursts                     6                       # Number of controller write bursts merged with an existing one
system.mem_ctrls.neitherReadNorWriteReqs            0                       # Number of requests that are neither read nor write
system.mem_ctrls.avgRdQLen                       1.13                       # Average read queue length when enqueuing
system.mem_ctrls.avgWrQLen                      24.72                       # Average write queue length when enqueuing
system.mem_ctrls.numRdRetry                         0                       # Number of times read queue was full causing retry
system.mem_ctrls.numWrRetry                         0                       # Number of times write queue was full causing retry
system.mem_ctrls.readPktSize::0                     0                       # Read request sizes (log2)
system.mem_ctrls.readPktSize::1                     0                       # Read request sizes (log2)
system.mem_ctrls.readPktSize::2                     0                       # Read request sizes (log2)
system.mem_ctrls.readPktSize::3                     0                       # Read request sizes (log2)
system.mem_ctrls.readPktSize::4                     0                       # Read request sizes (log2)
system.mem_ctrls.readPktSize::5                     0                       # Read request sizes (log2)
system.mem_ctrls.readPktSize::6                   697                       # Read request sizes (log2)
system.mem_ctrls.writePktSize::0                    0                       # Write request sizes (log2)
system.mem_ctrls.writePktSize::1                    0                       # Write request sizes (log2)
system.mem_ctrls.writePktSize::2                    0                       # Write request sizes (log2)
system.mem_ctrls.writePktSize::3                    0                       # Write request sizes (log2)
system.mem_ctrls.writePktSize::4                    0                       # Write request sizes (log2)
system.mem_ctrls.writePktSize::5                    0                       # Write request sizes (log2)
system.mem_ctrls.writePktSize::6                  134                       # Write request sizes (log2)
system.mem_ctrls.rdQLenPdf::0                     564                       # What read queue length does an incoming req see
system.mem_ctrls.rdQLenPdf::1                      91                       # What read queue length does an incoming req see
system.mem_ctrls.rdQLenPdf::2                       7                       # What read queue length does an incoming req see
system.mem_ctrls.rdQLenPdf::3                       0                       # What read queue length does an incoming req see
system.mem_ctrls.rdQLenPdf::4                       0                       # What read queue length does an incoming req see
system.mem_ctrls.rdQLenPdf::5                       0                       # What read queue length does an incoming req see
system.mem_ctrls.rdQLenPdf::6                       0                       # What read queue length does an incoming req see
system.mem_ctrls.rdQLenPdf::7                       0                       # What read queue length does an incoming req see
system.mem_ctrls.rdQLenPdf::8                       0                       # What read queue length does an incoming req see
system.mem_ctrls.rdQLenPdf::9                       0                       # What read queue length does an incoming req see
system.mem_ctrls.rdQLenPdf::10                      0                       # What read queue length does an incoming req see
system.mem_ctrls.rdQLenPdf::11                      0                       # What read queue length does an incoming req see
system.mem_ctrls.rdQLenPdf::12                      0                       # What read queue length does an incoming req see
system.mem_ctrls.rdQLenPdf::13                      0                       # What read queue length does an incoming req see
system.mem_ctrls.rdQLenPdf::14                      0                       # What read queue length does an incoming req see
system.mem_ctrls.rdQLenPdf::15                      0                       # What read queue length does an incoming req see
system.mem_ctrls.rdQLenPdf::16                      0                       # What read queue length does an incoming req see
system.mem_ctrls.rdQLenPdf::17                      0                       # What read queue length does an incoming req see
system.mem_ctrls.rdQLenPdf::18                      0                       # What read queue length does an incoming req see
system.mem_ctrls.rdQLenPdf::19                      0                       # What read queue length does an incoming req see
system.mem_ctrls.rdQLenPdf::20                      0                       # What read queue length does an incoming req see
system.mem_ctrls.rdQLenPdf::21                      0                       # What read queue length does an incoming req see
system.mem_ctrls.rdQLenPdf::22                      0                       # What read queue length does an incoming req see
system.mem_ctrls.rdQLenPdf::23                      0                       # What read queue length does an incoming req see
system.mem_ctrls.rdQLenPdf::24                      0                       # What read queue length does an incoming req see
system.mem_ctrls.rdQLenPdf::25                      0                       # What read queue length does an incoming req see
system.mem_ctrls.rdQLenPdf::26                      0                       # What read queue length does an incoming req see
system.mem_ctrls.rdQLenPdf::27                      0                       # What read queue length does an incoming req see
system.mem_ctrls.rdQLenPdf::28                      0                       # What read queue length does an incoming req see
system.mem_ctrls.rdQLenPdf::29                      0                       # What read queue length does an incoming req see
system.mem_ctrls.rdQLenPdf::30                      0                       # What read queue length does an incoming req see
system.mem_ctrls.rdQLenPdf::31                      0                       # What read queue length does an incoming req see
system.mem_ctrls.rdQLenPdf::32                      0                       # What read queue length does an incoming req see
system.mem_ctrls.rdQLenPdf::33                      0                       # What read queue length does an incoming req see
system.mem_ctrls.rdQLenPdf::34                      0                       # What read queue length does an incoming req see
system.mem_ctrls.rdQLenPdf::35                      0                       # What read queue length does an incoming req see
system.mem_ctrls.rdQLenPdf::36                      0                       # What read queue length does an incoming req see
system.mem_ctrls.rdQLenPdf::37                      0                       # What read queue length does an incoming req see
system.mem_ctrls.rdQLenPdf::38                      0                       # What read queue length does an incoming req see
system.mem_ctrls.rdQLenPdf::39                      0                       # What read queue length does an incoming req see
system.mem_ctrls.rdQLenPdf::40                      0                       # What read queue length does an incoming req see
system.mem_ctrls.rdQLenPdf::41                      0                       # What read queue length does an incoming req see
system.mem_ctrls.rdQLenPdf::42                      0                       # What read queue length does an incoming req see
system.mem_ctrls.rdQLenPdf::43                      0                       # What read queue length does an incoming req see
system.mem_ctrls.rdQLenPdf::44                      0                       # What read queue length does an incoming req see
system.mem_ctrls.rdQLenPdf::45                      0                       # What read queue length does an incoming req see
system.mem_ctrls.rdQLenPdf::46                      0                       # What read queue length does an incoming req see
system.mem_ctrls.rdQLenPdf::47                      0                       # What read queue length does an incoming req see
system.mem_ctrls.rdQLenPdf::48                      0                       # What read queue length does an incoming req see
system.mem_ctrls.rdQLenPdf::49                      0                       # What read queue length does an incoming req see
system.mem_ctrls.rdQLenPdf::50                      0                       # What read queue length does an incoming req see
system.mem_ctrls.rdQLenPdf::51                      0                       # What read queue length does an incoming req see
system.mem_ctrls.rdQLenPdf::52                      0                       # What read queue length does an incoming req see
system.mem_ctrls.rdQLenPdf::53                      0                       # What read queue length does an incoming req see
system.mem_ctrls.rdQLenPdf::54                      0                       # What read queue length does an incoming req see
system.mem_ctrls.rdQLenPdf::55                      0                       # What read queue length does an incoming req see
system.mem_ctrls.rdQLenPdf::56                      0                       # What read queue length does an incoming req see
system.mem_ctrls.rdQLenPdf::57                      0                       # What read queue length does an incoming req see
system.mem_ctrls.rdQLenPdf::58                      0                       # What read queue length does an incoming req see
system.mem_ctrls.rdQLenPdf::59                      0                       # What read queue length does an incoming req see
system.mem_ctrls.rdQLenPdf::60                      0                       # What read queue length does an incoming req see
system.mem_ctrls.rdQLenPdf::61                      0                       # What read queue length does an incoming req see
system.mem_ctrls.rdQLenPdf::62                      0                       # What read queue length does an incoming req see
system.mem_ctrls.rdQLenPdf::63                      0                       # What read queue length does an incoming req see
system.mem_ctrls.wrQLenPdf::0                       1                       # What write queue length does an incoming req see
system.mem_ctrls.wrQLenPdf::1                       1                       # What write queue length does an incoming req see
system.mem_ctrls.wrQLenPdf::2                       1                       # What write queue length does an incoming req see
system.mem_ctrls.wrQLenPdf::3                       1                       # What write queue length does an incoming req see
system.mem_ctrls.wrQLenPdf::4                       1                       # What write queue length does an incoming req see
system.mem_ctrls.wrQLenPdf::5                       1                       # What write queue length does an incoming req see
system.mem_ctrls.wrQLenPdf::6                       1                       # What write queue length does an incoming req see
system.mem_ctrls.wrQLenPdf::7                       1                       # What write queue length does an incoming req see
system.mem_ctrls.wrQLenPdf::8                       1                       # What write queue length does an incoming req see
system.mem_ctrls.wrQLenPdf::9                       1                       # What write queue length does an incoming req see
system.mem_ctrls.wrQLenPdf::10                      1                       # What write queue length does an incoming req see
system.mem_ctrls.wrQLenPdf::11                      1                       # What write queue length does an incoming req see
system.mem_ctrls.wrQLenPdf::12                      1                       # What write queue length does an incoming req see
system.mem_ctrls.wrQLenPdf::13                      1                       # What write queue length does an incoming req see
system.mem_ctrls.wrQLenPdf::14                      1                       # What write queue length does an incoming req see
system.mem_ctrls.wrQLenPdf::15                      1                       # What write queue length does an incoming req see
system.mem_ctrls.wrQLenPdf::16                      1                       # What write queue length does an incoming req see
system.mem_ctrls.wrQLenPdf::17                      1                       # What write queue length does an incoming req see
system.mem_ctrls.wrQLenPdf::18                      1                       # What write queue length does an incoming req see
system.mem_ctrls.wrQLenPdf::19                      1                       # What write queue length does an incoming req see
system.mem_ctrls.wrQLenPdf::20                      1                       # What write queue length does an incoming req see
system.mem_ctrls.wrQLenPdf::21                      1                       # What write queue length does an incoming req see
system.mem_ctrls.wrQLenPdf::22                      1                       # What write queue length does an incoming req see
system.mem_ctrls.wrQLenPdf::23                      1                       # What write queue length does an incoming req see
system.mem_ctrls.wrQLenPdf::24                      1                       # What write queue length does an incoming req see
system.mem_ctrls.wrQLenPdf::25                      1                       # What write queue length does an incoming req see
system.mem_ctrls.wrQLenPdf::26                      1                       # What write queue length does an incoming req see
system.mem_ctrls.wrQLenPdf::27                      1                       # What write queue length does an incoming req see
system.mem_ctrls.wrQLenPdf::28                      1                       # What write queue length does an incoming req see
system.mem_ctrls.wrQLenPdf::29                      1                       # What write queue length does an incoming req see
system.mem_ctrls.wrQLenPdf::30                      1                       # What write queue length does an incoming req see
system.mem_ctrls.wrQLenPdf::31                      1                       # What write queue length does an incoming req see
system.mem_ctrls.wrQLenPdf::32                      1                       # What write queue length does an incoming req see
system.mem_ctrls.wrQLenPdf::33                      1                       # What write queue length does an incoming req see
system.mem_ctrls.wrQLenPdf::34                      1                       # What write queue length does an incoming req see
system.mem_ctrls.wrQLenPdf::35                      1                       # What write queue length does an incoming req see
system.mem_ctrls.wrQLenPdf::36                      1                       # What write queue length does an incoming req see
system.mem_ctrls.wrQLenPdf::37                      1                       # What write queue length does an incoming req see
system.mem_ctrls.wrQLenPdf::38                      1                       # What write queue length does an incoming req see
system.mem_ctrls.wrQLenPdf::39                      1                       # What write queue length does an incoming req see
system.mem_ctrls.wrQLenPdf::40                      1                       # What write queue length does an incoming req see
system.mem_ctrls.wrQLenPdf::41                      1                       # What write queue length does an incoming req see
system.mem_ctrls.wrQLenPdf::42                      1                       # What write queue length does an incoming req see
system.mem_ctrls.wrQLenPdf::43                      1                       # What write queue length does an incoming req see
system.mem_ctrls.wrQLenPdf::44                      1                       # What write queue length does an incoming req see
system.mem_ctrls.wrQLenPdf::45                      1                       # What write queue length does an incoming req see
system.mem_ctrls.wrQLenPdf::46                      1                       # What write queue length does an incoming req see
system.mem_ctrls.wrQLenPdf::47                      3                       # What write queue length does an incoming req see
system.mem_ctrls.wrQLenPdf::48                      3                       # What write queue length does an incoming req see
system.mem_ctrls.wrQLenPdf::49                      5                       # What write queue length does an incoming req see
system.mem_ctrls.wrQLenPdf::50                      5                       # What write queue length does an incoming req see
system.mem_ctrls.wrQLenPdf::51                      5                       # What write queue length does an incoming req see
system.mem_ctrls.wrQLenPdf::52                      5                       # What write queue length does an incoming req see
system.mem_ctrls.wrQLenPdf::53                      5                       # What write queue length does an incoming req see
system.mem_ctrls.wrQLenPdf::54                      5                       # What write queue length does an incoming req see
system.mem_ctrls.wrQLenPdf::55                      5                       # What write queue length does an incoming req see
system.mem_ctrls.wrQLenPdf::56                      5                       # What write queue length does an incoming req see
system.mem_ctrls.wrQLenPdf::57                      5                       # What write queue length does an incoming req see
system.mem_ctrls.wrQLenPdf::58                      5                       # What write queue length does an incoming req see
system.mem_ctrls.wrQLenPdf::59                      5                       # What write queue length does an incoming req see
system.mem_ctrls.wrQLenPdf::60                      4                       # What write queue length does an incoming req see
system.mem_ctrls.wrQLenPdf::61                      4                       # What write queue length does an incoming req see
system.mem_ctrls.wrQLenPdf::62                      4                       # What write queue length does an incoming req see
system.mem_ctrls.wrQLenPdf::63                      4                       # What write queue length does an incoming req see
system.mem_ctrls.wrQLenPdf::64                      4                       # What write queue length does an incoming req see
system.mem_ctrls.wrQLenPdf::65                      0                       # What write queue length does an incoming req see
system.mem_ctrls.wrQLenPdf::66                      0                       # What write queue length does an incoming req see
system.mem_ctrls.wrQLenPdf::67                      0                       # What write queue length does an incoming req see
system.mem_ctrls.wrQLenPdf::68                      0                       # What write queue length does an incoming req see
system.mem_ctrls.wrQLenPdf::69                      0                       # What write queue length does an incoming req see
system.mem_ctrls.wrQLenPdf::70                      0                       # What write queue length does an incoming req see
system.mem_ctrls.wrQLenPdf::71                      0                       # What write queue length does an incoming req see
system.mem_ctrls.wrQLenPdf::72                      0                       # What write queue length does an incoming req see
system.mem_ctrls.wrQLenPdf::73                      0                       # What write queue length does an incoming req see
system.mem_ctrls.wrQLenPdf::74                      0                       # What write queue length does an incoming req see
system.mem_ctrls.wrQLenPdf::75                      0                       # What write queue length does an incoming req see
system.mem_ctrls.wrQLenPdf::76                      0                       # What write queue length does an incoming req see
system.mem_ctrls.wrQLenPdf::77                      0                       # What write queue length does an incoming req see
system.mem_ctrls.wrQLenPdf::78                      0                       # What write queue length does an incoming req see
system.mem_ctrls.wrQLenPdf::79                      0                       # What write queue length does an incoming req see
system.mem_ctrls.wrQLenPdf::80                      0                       # What write queue length does an incoming req see
system.mem_ctrls.wrQLenPdf::81                      0                       # What write queue length does an incoming req see
system.mem_ctrls.wrQLenPdf::82                      0                       # What write queue length does an incoming req see
system.mem_ctrls.wrQLenPdf::83                      0                       # What write queue length does an incoming req see
system.mem_ctrls.wrQLenPdf::84                      0                       # What write queue length does an incoming req see
system.mem_ctrls.wrQLenPdf::85                      0                       # What write queue length does an incoming req see
system.mem_ctrls.wrQLenPdf::86                      0                       # What write queue length does an incoming req see
system.mem_ctrls.wrQLenPdf::87                      0                       # What write queue length does an incoming req see
system.mem_ctrls.wrQLenPdf::88                      0                       # What write queue length does an incoming req see
system.mem_ctrls.wrQLenPdf::89                      0                       # What write queue length does an incoming req see
system.mem_ctrls.wrQLenPdf::90                      0                       # What write queue length does an incoming req see
system.mem_ctrls.wrQLenPdf::91                      0                       # What write queue length does an incoming req see
system.mem_ctrls.wrQLenPdf::92                      0                       # What write queue length does an incoming req see
system.mem_ctrls.wrQLenPdf::93                      0                       # What write queue length does an incoming req see
system.mem_ctrls.wrQLenPdf::94                      0                       # What write queue length does an incoming req see
system.mem_ctrls.wrQLenPdf::95                      0                       # What write queue length does an incoming req see
system.mem_ctrls.wrQLenPdf::96                      0                       # What write queue length does an incoming req see
system.mem_ctrls.wrQLenPdf::97                      0                       # What write queue length does an incoming req see
system.mem_ctrls.wrQLenPdf::98                      0                       # What write queue length does an incoming req see
system.mem_ctrls.wrQLenPdf::99                      0                       # What write queue length does an incoming req see
system.mem_ctrls.wrQLenPdf::100                     0                       # What write queue length does an incoming req see
system.mem_ctrls.wrQLenPdf::101                     0                       # What write queue length does an incoming req see
system.mem_ctrls.wrQLenPdf::102                     0                       # What write queue length does an incoming req see
system.mem_ctrls.wrQLenPdf::103                     0                       # What write queue length does an incoming req see
system.mem_ctrls.wrQLenPdf::104                     0                       # What write queue length does an incoming req see
system.mem_ctrls.wrQLenPdf::105                     0                       # What write queue length does an incoming req see
system.mem_ctrls.wrQLenPdf::106                     0                       # What write queue length does an incoming req see
system.mem_ctrls.wrQLenPdf::107                     0                       # What write queue length does an incoming req see
system.mem_ctrls.wrQLenPdf::108                     0                       # What write queue length does an incoming req see
system.mem_ctrls.wrQLenPdf::109                     0                       # What write queue length does an incoming req see
[...]
system.mem_ctrls.dram.bw_read::.cpu.data    254350020                       # Total read bandwidth from this memory (bytes/s)
system.mem_ctrls.dram.bw_read::total        918559397                       # Total read bandwidth from this memory (bytes/s)
system.mem_ctrls.dram.bw_inst_read::.cpu.inst    664209378                       # Instruction read bandwidth from this memory (bytes/s)
system.mem_ctrls.dram.bw_inst_read::total    664209378                       # Instruction read bandwidth from this memory (bytes/s)
system.mem_ctrls.dram.bw_total::.cpu.inst    664209378                       # Total bandwidth to/from this memory (bytes/s)
system.mem_ctrls.dram.bw_total::.cpu.data    254350020                       # Total bandwidth to/from this memory (bytes/s)
system.mem_ctrls.dram.bw_total::total       918559397                       # Total bandwidth to/from this memory (bytes/s)
system.mem_ctrls.dram.readBursts                  662                       # Number of DRAM read bursts
system.mem_ctrls.dram.writeBursts                  68                       # Number of DRAM write bursts
system.mem_ctrls.dram.perBankRdBursts::0           44                       # Per bank write bursts
system.mem_ctrls.dram.perBankRdBursts::1            2                       # Per bank write bursts
system.mem_ctrls.dram.perBankRdBursts::2           26                       # Per bank write bursts
system.mem_ctrls.dram.perBankRdBursts::3           29                       # Per bank write bursts
system.mem_ctrls.dram.perBankRdBursts::4           10                       # Per bank write bursts
system.mem_ctrls.dram.perBankRdBursts::5           25                       # Per bank write bursts
system.mem_ctrls.dram.perBankRdBursts::6           47                       # Per bank write bursts
system.mem_ctrls.dram.perBankRdBursts::7           46                       # Per bank write bursts
system.mem_ctrls.dram.perBankRdBursts::8           37                       # Per bank write bursts
system.mem_ctrls.dram.perBankRdBursts::9           84                       # Per bank write bursts
system.mem_ctrls.dram.perBankRdBursts::10           54                       # Per bank write bursts
system.mem_ctrls.dram.perBankRdBursts::11           72                       # Per bank write bursts
system.mem_ctrls.dram.perBankRdBursts::12           11                       # Per bank write bursts
system.mem_ctrls.dram.perBankRdBursts::13            1                       # Per bank write bursts
system.mem_ctrls.dram.perBankRdBursts::14            0                       # Per bank write bursts
system.mem_ctrls.dram.perBankRdBursts::15            0                       # Per bank write bursts
system.mem_ctrls.dram.perBankRdBursts::16           13                       # Per bank write bursts
system.mem_ctrls.dram.perBankRdBursts::17           58                       # Per bank write bursts
system.mem_ctrls.dram.perBankRdBursts::18            0                       # Per bank write bursts
system.mem_ctrls.dram.perBankRdBursts::19            0                       # Per bank write bursts
system.mem_ctrls.dram.perBankRdBursts::20           12                       # Per bank write bursts
system.mem_ctrls.dram.perBankRdBursts::21            7                       # Per bank write bursts
system.mem_ctrls.dram.perBankRdBursts::22            7                       # Per bank write bursts
system.mem_ctrls.dram.perBankRdBursts::23            5                       # Per bank write bursts
system.mem_ctrls.dram.perBankRdBursts::24           27                       # Per bank write bursts
system.mem_ctrls.dram.perBankRdBursts::25           10                       # Per bank write bursts
system.mem_ctrls.dram.perBankRdBursts::26            3                       # Per bank write bursts
system.mem_ctrls.dram.perBankRdBursts::27            2                       # Per bank write bursts
system.mem_ctrls.dram.perBankRdBursts::28            8                       # Per bank write bursts
system.mem_ctrls.dram.perBankRdBursts::29           10                       # Per bank write bursts
system.mem_ctrls.dram.perBankRdBursts::30           10                       # Per bank write bursts
system.mem_ctrls.dram.perBankRdBursts::31            2                       # Per bank write bursts
system.mem_ctrls.dram.perBankWrBursts::0           13                       # Per bank write bursts
system.mem_ctrls.dram.perBankWrBursts::1            0                       # Per bank write bursts
system.mem_ctrls.dram.perBankWrBursts::2            6                       # Per bank write bursts
system.mem_ctrls.dram.perBankWrBursts::3            0                       # Per bank write bursts
system.mem_ctrls.dram.perBankWrBursts::4            0                       # Per bank write bursts
system.mem_ctrls.dram.perBankWrBursts::5            0                       # Per bank write bursts
system.mem_ctrls.dram.perBankWrBursts::6            1                       # Per bank write bursts
system.mem_ctrls.dram.perBankWrBursts::7            1                       # Per bank write bursts
system.mem_ctrls.dram.perBankWrBursts::8            7                       # Per bank write bursts
system.mem_ctrls.dram.perBankWrBursts::9            0                       # Per bank write bursts
system.mem_ctrls.dram.perBankWrBursts::10            0                       # Per bank write bursts
system.mem_ctrls.dram.perBankWrBursts::11           11                       # Per bank write bursts
system.mem_ctrls.dram.perBankWrBursts::12            0                       # Per bank write bursts
system.mem_ctrls.dram.perBankWrBursts::13            0                       # Per bank write bursts
system.mem_ctrls.dram.perBankWrBursts::14            0                       # Per bank write bursts
system.mem_ctrls.dram.perBankWrBursts::15            0                       # Per bank write bursts
system.mem_ctrls.dram.perBankWrBursts::16            4                       # Per bank write bursts
system.mem_ctrls.dram.perBankWrBursts::17            6                       # Per bank write bursts
system.mem_ctrls.dram.perBankWrBursts::18            0                       # Per bank write bursts
system.mem_ctrls.dram.perBankWrBursts::19            0                       # Per bank write bursts
system.mem_ctrls.dram.perBankWrBursts::20            0                       # Per bank write bursts
system.mem_ctrls.dram.perBankWrBursts::21            2                       # Per bank write bursts
system.mem_ctrls.dram.perBankWrBursts::22            3                       # Per bank write bursts
system.mem_ctrls.dram.perBankWrBursts::23            0                       # Per bank write bursts
system.mem_ctrls.dram.perBankWrBursts::24           10                       # Per bank write bursts
system.mem_ctrls.dram.perBankWrBursts::25            0                       # Per bank write bursts
system.mem_ctrls.dram.perBankWrBursts::26            0                       # Per bank write bursts
system.mem_ctrls.dram.perBankWrBursts::27            2                       # Per bank write bursts
system.mem_ctrls.dram.perBankWrBursts::28            2                       # Per bank write bursts
system.mem_ctrls.dram.perBankWrBursts::29            0                       # Per bank write bursts
system.mem_ctrls.dram.perBankWrBursts::30            0                       # Per bank write bursts
system.mem_ctrls.dram.perBankWrBursts::31            0                       # Per bank write bursts
system.mem_ctrls.dram.totQLat                 4693896                       # Total ticks spent queuing
system.mem_ctrls.dram.totBusLat               2205784                       # Total ticks spent in databus transfers
system.mem_ctrls.dram.totMemAccLat           16273600                       # Total ticks spent from burst creation until serviced by the DRAM
system.mem_ctrls.dram.avgQLat                 7090.48                       # Average queueing delay per DRAM burst
system.mem_ctrls.dram.avgBusLat               3332.00                       # Average bus latency per DRAM burst
system.mem_ctrls.dram.avgMemAccLat           24582.48                       # Average memory access latency per DRAM burst
system.mem_ctrls.dram.readRowHits                 535                       # Number of row buffer hits during reads
system.mem_ctrls.dram.writeRowHits                 58                       # Number of row buffer hits during writes
system.mem_ctrls.dram.readRowHitRate            80.82                       # Row buffer hit rate for reads
system.mem_ctrls.dram.writeRowHitRate           85.29                       # Row buffer hit rate for writes
system.mem_ctrls.dram.bytesPerActivate::samples          132                       # Bytes accessed per row activation
system.mem_ctrls.dram.bytesPerActivate::mean   344.242424                       # Bytes accessed per row activation
system.mem_ctrls.dram.bytesPerActivate::gmean   226.222710                       # Bytes accessed per row activation
system.mem_ctrls.dram.bytesPerActivate::stdev   307.343509                       # Bytes accessed per row activation
system.mem_ctrls.dram.bytesPerActivate::0-127           34     25.76%     25.76% # Bytes accessed per row activation
system.mem_ctrls.dram.bytesPerActivate::128-255           29     21.97%     47.73% # Bytes accessed per row activation
system.mem_ctrls.dram.bytesPerActivate::256-383           21     15.91%     63.64% # Bytes accessed per row activation
system.mem_ctrls.dram.bytesPerActivate::384-511           13      9.85%     73.48% # Bytes accessed per row activation
system.mem_ctrls.dram.bytesPerActivate::512-639           10      7.58%     81.06% # Bytes accessed per row activation
system.mem_ctrls.dram.bytesPerActivate::640-767            7      5.30%     86.36% # Bytes accessed per row activation
system.mem_ctrls.dram.bytesPerActivate::768-895            4      3.03%     89.39% # Bytes accessed per row activation
system.mem_ctrls.dram.bytesPerActivate::1024-1151           14     10.61%    100.00% # Bytes accessed per row activation
system.mem_ctrls.dram.bytesPerActivate::total          132                       # Bytes accessed per row activation
system.mem_ctrls.dram.bytesRead                 42368                       # Total number of bytes read from DRAM
system.mem_ctrls.dram.bytesWritten               4352                       # Total number of bytes written to DRAM
system.mem_ctrls.dram.avgRdBW              872.433746                       # Average DRAM read bandwidth in MiBytes/s
system.mem_ctrls.dram.avgWrBW               89.615551                       # Average DRAM write bandwidth in MiBytes/s
system.mem_ctrls.dram.peakBW                 19207.00                       # Theoretical peak bandwidth in MiByte/s
system.mem_ctrls.dram.busUtil                    5.01                       # Data bus utilization in percentage
system.mem_ctrls.dram.busUtilRead                4.54                       # Data bus utilization in percentage for reads
system.mem_ctrls.dram.busUtilWrite               0.47                       # Data bus utilization in percentage for writes
system.mem_ctrls.dram.pageHitRate               81.23                       # Row buffer hit rate, read and write combined
system.mem_ctrls.dram.power_state.pwrStateResidencyTicks::UNDEFINED     48563000                       # Cumulative time (in ticks) in various power states
system.mem_ctrls.dram.rank0.actEnergy    152818.848000                       # Energy for activate commands per rank (pJ)
system.mem_ctrls.dram.rank0.preEnergy    256019.551200                       # Energy for precharge commands per rank (pJ)
system.mem_ctrls.dram.rank0.readEnergy   1338536.371200                       # Energy for read commands per rank (pJ)
system.mem_ctrls.dram.rank0.writeEnergy  92003.184000                       # Energy for write commands per rank (pJ)
system.mem_ctrls.dram.rank0.refreshEnergy 4055133.297600                       # Energy for refresh commands per rank (pJ)
system.mem_ctrls.dram.rank0.actBackEnergy 22864520.532000                       # Energy for active background per rank (pJ)
system.mem_ctrls.dram.rank0.preBackEnergy 66341.452800                       # Energy for precharge background per rank (pJ)
system.mem_ctrls.dram.rank0.actPowerDownEnergy            0                       # Energy for active power-down per rank (pJ)
system.mem_ctrls.dram.rank0.prePowerDownEnergy            0                       # Energy for precharge power-down per rank (pJ)
system.mem_ctrls.dram.rank0.selfRefreshEnergy            0                       # Energy for self refresh per rank (pJ)
system.mem_ctrls.dram.rank0.totalEnergy  28825373.236800                       # Total energy per rank (pJ)
system.mem_ctrls.dram.rank0.averagePower   593.566568                       # Core power per rank (mW)
system.mem_ctrls.dram.rank0.totalIdleTime            0                       # Total Idle time Per DRAM Rank
system.mem_ctrls.dram.rank0.pwrStateTime::IDLE        36320                       # Time in different power states
system.mem_ctrls.dram.rank0.pwrStateTime::REF      2100000                       # Time in different power states
system.mem_ctrls.dram.rank0.pwrStateTime::SREF            0                       # Time in different power states
system.mem_ctrls.dram.rank0.pwrStateTime::PRE_PDN            0                       # Time in different power states
system.mem_ctrls.dram.rank0.pwrStateTime::ACT     46426680                       # Time in different power states
system.mem_ctrls.dram.rank0.pwrStateTime::ACT_PDN            0                       # Time in different power states
system.mem_ctrls.dram.rank1.actEnergy    60815.664000                       # Energy for activate commands per rank (pJ)
system.mem_ctrls.dram.rank1.preEnergy    107363.037600                       # Energy for precharge commands per rank (pJ)
system.mem_ctrls.dram.rank1.readEnergy   477265.017600                       # Energy for read commands per rank (pJ)
system.mem_ctrls.dram.rank1.writeEnergy  68412.624000                       # Energy for write commands per rank (pJ)
system.mem_ctrls.dram.rank1.refreshEnergy 4055133.297600                       # Energy for refresh commands per rank (pJ)
system.mem_ctrls.dram.rank1.actBackEnergy 19632649.797600                       # Energy for active background per rank (pJ)
system.mem_ctrls.dram.rank1.preBackEnergy 2297480.640000                       # Energy for precharge background per rank (pJ)
system.mem_ctrls.dram.rank1.actPowerDownEnergy            0                       # Energy for active power-down per rank (pJ)
system.mem_ctrls.dram.rank1.prePowerDownEnergy            0                       # Energy for precharge power-down per rank (pJ)
system.mem_ctrls.dram.rank1.selfRefreshEnergy            0                       # Energy for self refresh per rank (pJ)
system.mem_ctrls.dram.rank1.totalEnergy  26699120.078400                       # Total energy per rank (pJ)
system.mem_ctrls.dram.rank1.averagePower   549.783170                       # Core power per rank (mW)
system.mem_ctrls.dram.rank1.totalIdleTime            0                       # Total Idle time Per DRAM Rank
system.mem_ctrls.dram.rank1.pwrStateTime::IDLE      6872400                       # Time in different power states
system.mem_ctrls.dram.rank1.pwrStateTime::REF      2100000                       # Time in different power states
system.mem_ctrls.dram.rank1.pwrStateTime::SREF            0                       # Time in different power states
system.mem_ctrls.dram.rank1.pwrStateTime::PRE_PDN            0                       # Time in different power states
system.mem_ctrls.dram.rank1.pwrStateTime::ACT     39590600                       # Time in different power states
system.mem_ctrls.dram.rank1.pwrStateTime::ACT_PDN            0                       # Time in different power states
system.mem_ctrls.power_state.pwrStateResidencyTicks::UNDEFINED     48563000                       # Cumulative time (in ticks) in various power states
system.membus.trans_dist::ReadResp                623                       # Transaction distribution
system.membus.trans_dist::WritebackClean          144                       # Transaction distribution
system.membus.trans_dist::ReadExReq                74                       # Transaction distribution
system.membus.trans_dist::ReadExResp               74                       # Transaction distribution
system.membus.trans_dist::ReadCleanReq            504                       # Transaction distribution
system.membus.trans_dist::ReadSharedReq           119                       # Transaction distribution
system.membus.pkt_count_system.cpu.icache.mem_side_port::system.mem_ctrls.port         1152                       # Packet count per connected requestor and responder (bytes)
system.membus.pkt_count_system.cpu.dcache.mem_side_port::system.mem_ctrls.port          386                       # Packet count per connected requestor and responder (bytes)
system.membus.pkt_count::total                   1538                       # Packet count per connected requestor and responder (bytes)
system.membus.pkt_size_system.cpu.icache.mem_side_port::system.mem_ctrls.port        41472                       # Cumulative packet size per connected requestor and responder (bytes)
system.membus.pkt_size_system.cpu.dcache.mem_side_port::system.mem_ctrls.port        12352                       # Cumulative packet size per connected requestor and responder (bytes)
system.membus.pkt_size::total                   53824                       # Cumulative packet size per connected requestor and responder (bytes)
system.membus.snoops                                0                       # Total snoops (count)
system.membus.snoopTraffic                          0                       # Total snoop traffic (bytes)
system.membus.snoop_fanout::samples               697                       # Request fanout histogram
system.membus.snoop_fanout::mean             0.040172                       # Request fanout histogram
system.membus.snoop_fanout::stdev            0.196504                       # Request fanout histogram
system.membus.snoop_fanout::underflows              0      0.00%      0.00% # Request fanout histogram
system.membus.snoop_fanout::0                     669     95.98%     95.98% # Request fanout histogram
system.membus.snoop_fanout::1                      28      4.02%    100.00% # Request fanout histogram
system.membus.snoop_fanout::2                       0      0.00%    100.00% # Request fanout histogram
system.membus.snoop_fanout::overflows               0      0.00%    100.00% # Request fanout histogram
system.membus.snoop_fanout::min_value               0                       # Request fanout histogram
system.membus.snoop_fanout::max_value               1                       # Request fanout histogram
system.membus.snoop_fanout::total                 697                       # Request fanout histogram
system.membus.power_state.pwrStateResidencyTicks::UNDEFINED     48563000                       # Cumulative time (in ticks) in various power states
system.membus.reqLayer0.occupancy             1417000                       # Layer occupancy (ticks)
system.membus.reqLayer0.utilization               2.9                       # Layer utilization (%)
system.membus.respLayer1.occupancy            2743202                       # Layer occupancy (ticks)
system.membus.respLayer1.utilization              5.6                       # Layer utilization (%)
system.membus.respLayer2.occupancy            1046408                       # Layer occupancy (ticks)
system.membus.respLayer2.utilization              2.2                       # Layer utilization (%)
system.voltage_domain.voltage                       1                       # Voltage in Volts

---------- End Simulation Statistics   ----------
